33
buce
C          1.01170        0.14200       -0.23130
C          2.52810        0.10310       -0.29330
O          3.03980        1.27900        0.33570
C          4.39720        1.43790        0.26000
C          4.85280        2.75450        0.26730
C          6.22280        3.03430        0.20020
C          7.15690        1.99930        0.13640
C          6.69640        0.67850        0.14060
C          5.32520        0.39840        0.21730
N          8.55040        2.20970        0.04430
C          9.21240        3.39540        0.30740
O          8.71140        4.42360        0.75110
C         10.68540        3.36290       -0.03010
C         10.93700        3.77730       -1.47660
C         10.45290        5.18520       -1.80980
O         12.34420        3.70830       -1.72630
H          0.58390       -0.74090       -0.71540
H          0.62210        1.03940       -0.72220
H          0.67120        0.17100        0.80910
H          2.84820        0.06920       -1.34170
H          2.86770       -0.79570        0.23130
H          4.14110        3.57520        0.31150
H          6.52420        4.07750        0.17810
H          7.39270       -0.15530        0.11380
H          5.01630       -0.63970        0.26500
H          9.11750        1.38980       -0.12890
H         11.09320        2.36050        0.15040
H         11.22000        4.02140        0.66550
H         10.45560        3.06660       -2.15710
H         10.93300        5.93040       -1.16600
H          9.36820        5.27850       -1.70580
H         10.71730        5.44310       -2.84130
H         12.76770        4.46420       -1.27670
