40
Cele
C          0.87990       -0.01760        0.17600
C          2.37170        0.13930        0.18590
C          2.97580        1.21880       -0.46220
C          4.36450        1.26370       -0.61890
C          5.18140        0.23440       -0.13020
C          4.57790       -0.76670        0.64370
C          3.18460       -0.84020        0.76190
C          6.61480        0.21260       -0.47970
C          7.45880        1.29570       -0.67210
C          8.74240        0.77230       -0.94250
N          8.72930       -0.56710       -0.85210
N          7.41510       -0.90790       -0.74680
C          7.05550       -2.27560       -0.93980
C          7.98780       -3.28150       -0.63280
C          7.61310       -4.62810       -0.68980
C          6.31520       -4.96360       -1.07560
C          5.41430       -3.97640       -1.47760
C          5.79270       -2.63460       -1.42750
S          5.79560       -6.64770       -1.05960
O          4.64760       -6.80380       -1.92590
O          6.94900       -7.50910       -1.14610
N          5.20830       -6.81010        0.50610
C          9.98060        1.55720       -1.28260
F          9.73530        2.89770       -1.30240
F         10.98910        1.36390       -0.39370
F         10.46590        1.24370       -2.51400
H          0.37940        0.94170        0.00960
H          0.52040       -0.42130        1.12720
H          0.59070       -0.69980       -0.63140
H          2.36930        2.01560       -0.88710
H          4.79060        2.09810       -1.17070
H          5.17260       -1.55090        1.10740
H          2.73920       -1.68870        1.27760
H          7.18800        2.34230       -0.61840
H          8.99370       -3.02920       -0.29790
H          8.33100       -5.39840       -0.41810
H          4.41370       -4.23750       -1.81720
H          5.08210       -1.88900       -1.77580
H          4.20710       -7.00320        0.48530
H          5.75360       -7.51110        1.00860
