57
chlo
C          1.71500        7.57820        5.07270
C          2.21630        6.38660        4.30280
O          2.74580        6.58010        3.20730
C          2.06230        4.94850        4.92930
C          0.55820        4.70420        5.19320
C         -0.00050        4.44810        3.81030
C          1.11380        3.70650        3.01860
C          2.35780        3.73100        3.95340
C          3.67970        3.80140        3.15730
C          3.58290        3.06790        1.81810
C          2.56990        3.65720        0.78820
C          1.34960        4.30670        1.60670
C          0.01640        4.37750        0.87770
C         -0.10070        3.77110       -0.29320
C          0.66260        2.51710       -0.34970
C          0.05630        1.39310       -0.75340
C          0.06420        1.58550       -2.23550
O         -0.90810        1.21500       -2.88720
C          1.36300        2.12970       -2.86540
C          2.37070        2.93430       -1.92020
C          2.16980        2.61170       -0.38020
C          3.00180        1.29620       -0.25670
Cl        -0.04130        4.92530       -1.61400
C          2.37650        2.37250        4.73950
O          2.69410        4.82820        6.21320
C          4.01230        5.14590        6.31050
O          4.71400        5.54590        5.40030
C          4.50100        4.97850        7.71400
H          2.54050        8.02840        5.62210
H          0.90620        7.33710        5.75470
H          1.31700        8.30290        4.34420
H          0.03540        5.52340        5.68910
H          0.39220        3.84060        5.84820
H         -0.24870        5.41390        3.35220
H         -0.92570        3.86380        3.85780
H          0.78320        2.66740        2.87290
H          4.47990        3.33600        3.74780
H          4.02590        4.81410        2.96210
H          3.30830        2.04040        2.06280
H          4.58110        3.03390        1.36730
H          3.07920        4.49650        0.28910
H          1.61580        5.35840        1.72440
H         -0.83240        4.11310        1.51460
H          0.51150        0.42740       -0.57200
H          1.06130        2.76780       -3.70230
H          1.87000        1.24620       -3.27090
H          2.31520        4.00380       -2.13900
H          3.38490        2.66980       -2.25640
H          4.07660        1.53470       -0.24470
H          2.87430        0.62880       -1.11730
H          2.75170        0.71320        0.63000
H          1.40120        2.12750        5.18080
H          3.11560        2.37480        5.53640
H          2.61130        1.53300        4.07280
H          3.74130        4.50170        8.34120
H          4.73060        5.96260        8.13510
H          5.38800        4.34190        7.71630
