33
diaz
C          0.89390        0.00300        0.03130
N          2.34880        0.02660        0.13420
C          3.01820       -1.20400        0.03920
O          2.41860       -2.27380       -0.08990
C          4.54110       -1.16690        0.01600
N          5.02710       -0.81910        1.34960
C          4.83880        0.38890        1.76020
C          4.23600        1.46530        0.92020
C          3.01460        1.28920        0.24310
C          2.43420        2.42510       -0.35520
C          3.07730        3.66980       -0.33780
C          4.31300        3.80000        0.27920
C          4.89890        2.70740        0.90580
Cl         5.10600        5.32470        0.29370
C          5.22860        0.70920        3.17480
C          6.26090       -0.01740        3.78330
C          6.60520        0.22840        5.11510
C          5.91780        1.19540        5.84600
C          4.88490        1.91790        5.25140
C          4.53370        1.67110        3.92160
H          0.49160       -1.00640        0.14360
H          0.58570        0.37350       -0.94880
H          0.46630        0.62230        0.82740
H          4.91460       -0.50420       -0.77110
H          4.89890       -2.17290       -0.23110
H          1.49040        2.36490       -0.88990
H          2.60990        4.52230       -0.82540
H          5.85910        2.82570        1.40330
H          6.79450       -0.78490        3.22510
H          7.40060       -0.34500        5.58190
H          6.17800        1.37650        6.88640
H          4.34070        2.66180        5.82670
H          3.70060        2.22280        3.49700
