40
diet
C          2.40990       -0.65070       -1.46390
C          2.62870       -0.12110       -0.05290
C          3.04500       -1.16930        0.97160
C          2.21510       -1.83960        1.81100
C          2.64740       -2.70190        2.98240
C          2.69840       -4.19370        2.68620
C          0.75250       -1.68140        1.67090
C          0.03220       -2.54060        0.83010
C         -1.33250       -2.33810        0.61300
C         -1.97160       -1.27190        1.23790
C         -1.27910       -0.43340        2.10430
C          0.08380       -0.63860        2.32370
O         -3.28780       -1.00170        1.00830
C          4.51290       -1.32970        1.05660
C          5.16240       -2.30750        0.28930
C          6.55540       -2.40940        0.30870
C          7.29380       -1.54070        1.10470
C          6.66350       -0.57590        1.88330
C          5.27180       -0.46850        1.85870
O          8.65600       -1.59580        1.14170
H          2.38390        0.18690       -2.16950
H          1.45150       -1.17560       -1.54380
H          3.20360       -1.32940       -1.78380
H          1.72730        0.40960        0.26950
H          3.39950        0.66100       -0.09810
H          1.97250       -2.53410        3.83270
H          3.63200       -2.38630        3.34670
H          1.69600       -4.60530        2.53410
H          3.14620       -4.72310        3.53510
H          3.30150       -4.41130        1.79990
H          0.53740       -3.36230        0.32690
H         -1.87140       -3.00910       -0.04810
H         -1.79350        0.39100        2.59000
H          0.62760        0.03590        2.98050
H         -3.58990       -1.55440        0.26880
H          4.58480       -2.98070       -0.33990
H          7.04040       -3.16250       -0.30640
H          7.25280        0.09800        2.49770
H          4.78280        0.29500        2.45800
H          8.95390       -2.29670        0.53900
