44
Felo
C          6.24960       -0.24820       -1.09980
C          5.20590        0.65920       -0.48250
O          5.25490        0.40700        0.92310
C          4.35020       -0.45060        1.44990
O          3.34880       -0.86190        0.88940
C          4.86920       -0.96510        2.74790
C          5.62170       -0.21460        3.59220
N          6.13650       -0.78860        4.73560
C          6.01830       -2.11250        5.09630
C          5.24220       -2.94430        4.35500
C          4.50200       -2.42900        3.10140
C          4.64730       -3.40190        1.91020
C          3.53430       -4.06110        1.32420
C          3.73290       -5.01690        0.31000
C          5.02140       -5.30460       -0.14540
C          6.11660       -4.63960        0.39580
C          5.93400       -3.69910        1.41340
Cl         2.43090       -5.90980       -0.40560
Cl         1.91320       -3.72540        1.86000
C          5.10750       -4.37310        4.77710
O          5.93500       -4.97660        5.44430
O          3.94820       -4.90500        4.32540
C          3.72230       -6.28250        4.65070
C          6.77760       -2.50680        6.34030
C          5.98830        1.24910        3.45610
H          6.33360       -0.09090       -2.17550
H          6.00330       -1.29830       -0.90480
H          7.22540       -0.06810       -0.63280
H          4.21140        0.49710       -0.91020
H          5.47480        1.70960       -0.63920
H          6.72460       -0.19350        5.32060
H          3.45150       -2.37800        3.40800
H          5.17290       -6.05450       -0.92060
H          7.11770       -4.86770        0.03630
H          6.81180       -3.21020        1.83260
H          2.67570       -6.38980        4.94650
H          4.34540       -6.64830        5.47320
H          3.90010       -6.89450        3.76120
H          7.29460       -1.64650        6.78190
H          7.55350       -3.24390        6.11090
H          6.10120       -2.89620        7.10720
H          5.52930        1.78240        2.62410
H          7.07640        1.35150        3.36560
H          5.67430        1.78910        4.35730
