56
Hydr
C          1.83530       -0.09850        1.44950
C          3.34490       -0.08530        1.09920
C          3.59390       -1.22280        0.06160
C          3.36390       -2.62360        0.64150
C          4.24630       -2.84650        1.84080
O          4.68080       -3.95610        2.14110
C          4.55960       -1.69340        2.69030
C          4.18910       -0.44180        2.36670
C          4.74110        0.64930        3.26060
C          5.33550        1.75660        2.41850
C          4.18690        2.30870        1.60640
C          3.75390        1.32800        0.47240
C          2.72290        2.00630       -0.55500
C          2.74420        3.59110       -0.70300
C          3.03450        4.27570        0.66400
C          4.42550        3.64150        0.96330
C          5.34810        4.73050        1.47080
C          4.85130        5.91690        0.63190
C          3.32430        5.81090        0.77920
C          3.05460        6.46230        2.19840
O          3.14170        5.85420        3.27220
C          2.78920        7.96540        2.23520
O          3.30600        8.58000        3.40990
O          2.60120        6.49260       -0.22880
C          1.78940        3.95250        1.54180
O          2.93180        1.43300       -1.84900
H          1.54120       -0.97820        2.02990
H          1.22440       -0.12520        0.53590
H          1.53660        0.77980        2.02620
H          4.63370       -1.16670       -0.29090
H          2.95490       -1.09680       -0.81900
H          3.61080       -3.37930       -0.11110
H          2.32600       -2.78040        0.95190
H          5.13970       -1.91800        3.57890
H          5.51200        0.27140        3.93660
H          3.93390        1.03440        3.90350
H          6.14480        1.38340        1.77650
H          5.76450        2.51920        3.07550
H          3.36330        2.40480        2.31620
H          4.66000        1.13010       -0.12390
H          1.70000        1.74290       -0.28400
H          1.78490        3.92670       -1.11770
H          3.48750        3.88170       -1.45940
H          4.93850        3.40850        0.01200
H          6.39980        4.51480        1.25070
H          5.25890        4.89540        2.54590
H          5.14390        5.81020       -0.42120
H          5.26430        6.86690        0.98490
H          1.71020        8.12730        2.20280
H          3.26570        8.44740        1.38090
H          2.99540        8.04600        4.16640
H          3.22220        6.82310       -0.89970
H          1.40690        2.93930        1.40870
H          0.95720        4.61470        1.27700
H          1.97350        4.04350        2.61300
H          2.27770        1.82510       -2.45420
