33
Ibup
C          2.65970       -3.38590        0.07770
C          2.38100       -1.89520       -0.13230
C          0.87020       -1.64640       -0.07140
C          3.10590       -1.01310        0.90670
C          4.61280       -1.14790        0.89890
C          5.36180       -0.80360       -0.23220
C          6.75080       -0.96280       -0.24270
C          7.42700       -1.46400        0.88060
C          6.67990       -1.76370        2.02770
C          5.28870       -1.61520        2.03200
C          8.93830       -1.63310        0.83070
C          9.64700       -0.35880        1.28960
C          9.45020       -2.85000        1.59820
O         10.28160       -2.81740        2.49250
O          8.91700       -4.02030        1.16650
H          2.13710       -3.98520       -0.67570
H          2.32310       -3.71720        1.06600
H          3.72680       -3.61170       -0.01230
H          2.72280       -1.62410       -1.13900
H          0.45940       -1.93250        0.90260
H          0.35030       -2.22690       -0.84030
H          0.64050       -0.58850       -0.23930
H          2.71900       -1.24200        1.90850
H          2.86360        0.04300        0.72660
H          4.86720       -0.40920       -1.11750
H          7.30100       -0.68400       -1.13940
H          7.16520       -2.12170        2.93480
H          4.73550       -1.87220        2.93400
H          9.23610       -1.81300       -0.21220
H          9.42480       -0.12780        2.33740
H          9.34610        0.50250        0.68320
H         10.73380       -0.46670        1.19820
H          8.23640       -3.90180        0.47500
