36
indo
C          3.75510        0.45910       -0.68630
C          2.56490       -0.10360        0.09960
C          3.02030       -1.16210        1.09540
C          3.91210       -0.85980        2.12680
C          4.32270       -1.84970        3.02980
C          3.86340       -3.16990        2.93660
C          2.94240       -3.45810        1.92120
C          2.53040       -2.47200        1.00940
N          4.32970       -4.18590        3.81710
C          3.88310       -5.57450        3.74130
C          4.71780       -6.26990        4.76670
C          4.76520       -7.60400        5.13460
C          5.68160       -7.98650        6.12510
C          6.53140       -7.04320        6.73100
C          6.47270       -5.70180        6.35970
C          5.55730       -5.35030        5.38300
C          5.31410       -4.03100        4.80170
O          5.92750       -3.04820        5.17390
C          1.74770        1.03600        0.70930
O          1.64970        2.14550        0.20060
O          1.05050        0.72310        1.82620
H          4.33830       -0.34240       -1.15280
H          4.42880        1.04080       -0.04680
H          3.41300        1.12830       -1.48400
H          1.89220       -0.58060       -0.62620
H          4.31210        0.14620        2.24760
H          5.02280       -1.54450        3.80240
H          2.53260       -4.45590        1.79420
H          1.83200       -2.74950        0.22190
H          4.08340       -5.97910        2.74420
H          2.81970       -5.63250        3.99590
H          4.12080       -8.34520        4.67230
H          5.74410       -9.02950        6.43080
H          7.24140       -7.36140        7.49140
H          7.12100       -4.95530        6.80700
H          1.20090       -0.18200        2.16120
