26
mann
C          1.05060       -0.05380       -0.07490
C          0.50160        1.37910        0.08020
C          0.98960        2.32360       -1.05920
C          0.48130        3.79050       -0.92820
C          0.97870        4.73530       -2.05350
C          0.40680        6.15480       -1.89900
O          0.89510        6.98810       -2.95080
O          2.40660        4.85630       -2.10040
O         -0.94610        3.84390       -0.89400
O          2.42040        2.27080       -1.11270
O         -0.91980        1.30840        0.16520
O          2.46910       -0.11390       -0.01420
H          0.71980       -0.49360       -1.02270
H          0.65140       -0.69300        0.72030
H          0.87410        1.77600        1.03250
H          0.61240        1.92310       -2.00830
H          0.84880        4.18440        0.02830
H          0.66470        4.34340       -3.02790
H          0.73240        6.60210       -0.95410
H         -0.68650        6.16600       -1.93770
H          1.82540        6.72450       -3.09640
H          2.71440        5.17500       -1.23630
H         -1.29450        3.49620       -1.73340
H          2.76790        2.69940       -0.30810
H         -1.27150        1.00910       -0.68920
H          2.80520        0.49350       -0.70630
