39
mico
C         -0.77720       -0.73010       -0.26540
C         -0.07030        0.43260       -0.58320
C          0.53250        1.21510        0.42290
C          0.36230        0.82130        1.75900
C         -0.34560       -0.34270        2.07730
C         -0.90290       -1.11680        1.06430
Cl        -1.75120       -2.56180        1.45800
Cl         1.01640        1.73780        3.06820
C          1.31870        2.44230        0.02530
O          0.41380        3.52400       -0.15900
C          1.00810        4.80880       -0.45600
C          1.69880        4.77800       -1.84220
N          0.80310        4.50990       -2.95130
C          0.13220        5.43660       -3.69880
C         -0.52830        4.70970       -4.65410
N         -0.24880        3.37250       -4.53000
C          0.56740        3.28520       -3.50580
C         -0.06390        5.90070       -0.30130
C          0.18170        7.27400       -0.51310
C         -0.85310        8.21830       -0.44670
C         -2.13660        7.82030       -0.09520
C         -2.39680        6.48860        0.19410
C         -1.37390        5.54140        0.08480
Cl        -3.39920        8.98350        0.00540
Cl         1.76090        7.90990       -0.81480
H         -1.22480       -1.32450       -1.05920
H          0.00600        0.72290       -1.62950
H         -0.45910       -0.64660        3.11460
H          1.83780        2.21680       -0.91170
H          2.09010        2.69720        0.75770
H          1.76310        5.00360        0.31790
H          2.47060        4.00250       -1.86900
H          2.22270        5.70420       -2.08220
H          0.16530        6.50150       -3.49740
H         -1.18420        5.07650       -5.43390
H          1.01100        2.37260       -3.13890
H         -0.65460        9.26670       -0.65730
H         -3.39150        6.17210        0.49790
H         -1.62270        4.50420        0.30820
