40
nial
C          0.11250        0.72570       -3.35490
C          0.36600        0.04990       -2.16320
C          1.67070       -0.03750       -1.67150
C          2.73900        0.54600       -2.36890
C          2.47030        1.21700       -3.57160
C          1.16420        1.30630       -4.06060
C          4.13360        0.52360       -1.79320
N          4.62510       -0.82280       -1.58730
C          4.97410       -1.29460       -0.34260
O          4.90130       -0.62530        0.68360
C          5.51180       -2.70840       -0.33300
C          7.02720       -2.67990       -0.49640
N          7.57510       -4.04780       -0.50010
N          8.98180       -4.01660       -0.65490
C          9.52900       -4.04020       -1.93160
O          8.84650       -4.10440       -2.95230
C         11.00760       -3.93340       -2.02720
C         11.86000       -4.40500       -1.02840
C         13.22240       -4.24060       -1.21280
N         13.76820       -3.65480       -2.29960
C         12.92090       -3.22690       -3.25930
C         11.54700       -3.34690       -3.17350
H         -0.90520        0.80770       -3.72830
H         -0.45420       -0.39690       -1.60720
H          1.85020       -0.54740       -0.72670
H          3.27300        1.69320       -4.13030
H          0.96490        1.84100       -4.98610
H          4.14610        1.09820       -0.86050
H          4.83920        1.00320       -2.48100
H          4.71220       -1.41990       -2.39840
H          5.03720       -3.28960       -1.13130
H          5.22680       -3.17490        0.61800
H          7.47540       -2.10650        0.32500
H          7.28900       -2.16640       -1.43030
H          7.19930       -4.54240       -1.32050
H          9.55240       -3.88690        0.17530
H         11.49840       -4.91150       -0.14210
H         13.93690       -4.59000       -0.47190
H         13.39170       -2.77010       -4.12550
H         10.91200       -2.98690       -3.97650
