41
Phys
C          1.27630       -0.11190       -0.27260
C          2.76820        0.05040        0.03440
C          3.16680       -0.79710        1.25520
C          4.59190       -1.28220        0.99770
N          4.93380       -0.63970       -0.23780
C          3.75580       -0.42710       -1.08210
N          3.85210        0.65400       -2.07750
C          3.66220        1.80520       -1.27380
C          3.13690        1.51960        0.00550
C          3.08920        2.49560        0.98870
C          3.56190        3.77170        0.65760
C          4.06670        4.06010       -0.62240
C          4.09550        3.07150       -1.60600
O          3.61810        4.71180        1.71370
C          3.48500        6.07350        1.46140
O          3.20070        6.58540        0.39080
N          3.72310        6.77800        2.60900
C          3.68320        8.21660        2.65430
C          3.01600        0.60780       -3.26490
C          6.23950       -0.76330       -0.80490
H          1.01680       -1.16120       -0.45310
H          0.95260        0.46260       -1.14540
H          0.67310        0.24090        0.57250
H          2.51980       -1.68200        1.33270
H          3.08180       -0.24480        2.19580
H          4.62400       -2.37430        0.91650
H          5.25200       -0.97330        1.81400
H          3.43490       -1.37380       -1.53800
H          2.74000        2.27180        1.98900
H          4.48260        5.03310       -0.86190
H          4.52470        3.27630       -2.58030
H          3.96470        6.24520        3.43140
H          3.39580        8.64470        1.69060
H          4.67380        8.58170        2.93480
H          2.95950        8.51220        3.41730
H          3.13160       -0.35750       -3.76920
H          3.32040        1.38130       -3.98010
H          1.95420        0.74880       -3.04540
H          6.99190       -0.53840       -0.03880
H          6.40060       -0.02120       -1.59550
H          6.43770       -1.75660       -1.20810
