52
pred
C          2.65620        0.73140        4.07590
C          3.41140        0.24730        2.79020
C          2.44760       -0.77180        2.14220
C          2.65520       -2.10330        2.86600
O          1.78680       -2.61860        3.55720
C          4.08660       -2.59330        2.76400
C          4.92500       -1.71170        3.73850
C          4.85160       -0.29450        3.10780
C          5.60730        0.95030        3.58670
C          4.88710        2.12340        2.85330
C          3.84050        1.46760        1.90630
C          4.51580        1.07230        0.53290
O          4.46280       -0.07170        0.05760
C          5.35190        2.12210       -0.19320
O          4.74730        3.39750       -0.25540
O          2.73150        2.31930        1.67920
C          6.35540       -2.25680        3.78930
C          6.36370       -3.71550        4.23600
C          5.59800       -4.64400        3.32180
C          6.23520       -5.74110        2.84480
C          6.85550       -5.36700        1.52180
O          7.99020       -5.71080        1.21110
C          5.96390       -4.64820        0.57870
C          4.79240       -4.16250        1.02240
C          4.39190       -4.10670        2.52880
C          3.19610       -5.06590        2.70100
H          2.17910       -0.09690        4.60990
H          1.85590        1.43440        3.81200
H          3.29760        1.23100        4.80530
H          2.62100       -0.95490        1.08440
H          1.39790       -0.47150        2.23510
H          4.36430       -2.17280        1.79450
H          4.49510       -1.69990        4.74880
H          5.36460       -0.47910        2.15600
H          6.65790        0.91330        3.27700
H          5.57940        1.08790        4.67120
H          5.59810        2.77580        2.34090
H          4.38010        2.77190        3.58010
H          5.51890        1.76170       -1.21620
H          6.33030        2.20600        0.28960
H          4.93680        3.74890       -1.14600
H          3.07410        3.18330        1.38220
H          6.96910       -1.65720        4.47260
H          6.82540       -2.17930        2.79870
H          5.94530       -3.79510        5.24660
H          7.41060       -4.04460        4.30810
H          5.61350       -6.59320        2.54010
H          6.29540       -4.53850       -0.44400
H          4.13340       -3.66770        0.30850
H          2.23400       -4.61540        2.44540
H          3.12970       -5.45020        3.72500
H          3.28110       -5.93630        2.03630
