48
Quin
C          0.85710       -2.77070        4.71430
O          2.20730       -2.38060        4.50280
C          2.85070       -2.90650        3.41810
C          2.26500       -3.60550        2.35810
C          3.04190       -4.10970        1.27260
C          2.52360       -4.76250        0.11120
C          3.42950       -5.34700       -0.78530
C          4.78170       -5.20600       -0.56310
N          5.29650       -4.49210        0.45310
C          4.45010       -3.96240        1.34660
C          5.00330       -3.23070        2.38300
C          4.22100       -2.68670        3.40080
C          1.04430       -4.83560       -0.22670
C          0.63370       -4.10300       -1.56300
C          0.93420       -2.58740       -1.56020
C         -0.36280       -1.78940       -1.80300
C         -0.87100       -2.18700       -3.19970
C         -1.08400       -3.70950       -3.24510
N         -0.80500       -4.35710       -1.93340
C         -1.71300       -3.72630       -0.93880
C         -1.39370       -2.22300       -0.73200
C         -2.65610       -1.38460       -0.77790
C         -3.05950       -0.57820        0.21580
O          0.71300       -6.22740       -0.33710
H          0.51790       -2.30720        5.64580
H          0.77250       -3.85610        4.83190
H          0.21160       -2.40630        3.90900
H          1.19810       -3.79180        2.37840
H          3.08320       -5.91730       -1.64130
H          5.51030       -5.66800       -1.22200
H          6.08070       -3.08100        2.40490
H          4.69280       -2.11390        4.19560
H          0.44280       -4.43850        0.59100
H          1.22490       -4.56580       -2.36570
H          1.64890       -2.36370       -2.36440
H          1.39790       -2.26370       -0.62410
H         -0.16030       -0.71330       -1.75840
H         -0.14290       -1.88860       -3.96380
H         -1.80320       -1.66270       -3.43870
H         -0.45310       -4.15310       -4.02440
H         -2.11710       -3.92390       -3.54970
H         -1.65110       -4.25220        0.01830
H         -2.75270       -3.87770       -1.26310
H         -0.92330       -2.10450        0.25480
H         -3.27340       -1.45130       -1.66490
H         -2.49670       -0.46850        1.13420
H         -3.98350       -0.00700        0.12580
H          0.03580       -6.27810       -1.04080
