57
Tamo
C          1.23430        0.33090        0.47100
C          2.63990       -0.09550        0.06780
C          2.90100       -1.12590       -1.02990
C          2.04430       -1.85530       -1.80230
C          2.58540       -2.81960       -2.80820
C          2.75580       -4.16490       -2.46230
C          3.30050       -5.06440       -3.37960
C          3.67000       -4.62650       -4.65170
C          3.47830       -3.29450       -5.01420
C          2.93160       -2.39400       -4.09880
C          0.58260       -1.65930       -1.74490
C          0.01950       -0.71110       -2.59850
C         -1.35430       -0.49340       -2.59720
C         -2.19840       -1.22320       -1.75290
C         -1.63880       -2.18560       -0.90850
C         -0.25370       -2.41130       -0.91000
O         -3.56680       -1.06580       -1.68960
C         -4.07490       -0.12340       -2.64350
C         -5.60410       -0.01240       -2.62000
N         -6.09180        1.03040       -3.55230
C         -5.74260        0.74730       -4.94700
C         -7.53880        1.19630       -3.42760
C          4.37210       -1.26920       -1.23790
C          5.03520       -0.43380       -2.14680
C          6.40110       -0.59370       -2.38250
C          7.11170       -1.58520       -1.70840
C          6.45950       -2.41100       -0.79210
C          5.09280       -2.25370       -0.55460
H          1.29000        0.98150        1.35150
H          0.60950       -0.51640        0.75730
H          0.74550        0.90640       -0.32010
H          3.11900       -0.47140        0.98260
H          3.17410        0.82750       -0.19680
H          2.47760       -4.51300       -1.47120
H          3.44540       -6.10450       -3.09940
H          4.10990       -5.32420       -5.35920
H          3.76530       -2.95330       -6.00540
H          2.79710       -1.35560       -4.38770
H          0.64660       -0.12970       -3.26960
H         -1.72380        0.26280       -3.28030
H         -2.27720       -2.76070       -0.24260
H          0.16930       -3.15930       -0.24490
H         -3.77220       -0.45960       -3.63960
H         -3.66140        0.86820       -2.42160
H         -5.90830        0.24020       -1.59580
H         -6.05330       -0.98930       -2.84060
H         -4.66000        0.80330       -5.10590
H         -6.16860        1.50490       -5.61580
H         -6.09640       -0.23690       -5.27050
H         -7.80940        1.47900       -2.40430
H         -8.08230        0.28340       -3.69540
H         -7.88710        2.00790       -4.07670
H          4.48620        0.33240       -2.68790
H          6.90730        0.04720       -3.09950
H          8.17330       -1.71850       -1.90070
H          7.01400       -3.18610       -0.27040
H          4.59160       -2.91490        0.14920
