49
Test
C          1.33950       -0.69100       -1.67250
C          2.64240       -0.32030       -0.91320
C          2.94230       -1.36950        0.17080
C          1.79310       -1.47260        1.22400
C          1.24520       -0.11030        1.78120
C          1.42160        1.05670        0.77000
C          2.60500        1.01440       -0.15770
C          2.57790        2.05580       -1.27310
C          3.52360        1.48610       -2.33240
C          3.69920       -0.01300       -2.00400
O          5.02320       -0.26540       -1.56010
C          1.35300        2.35150        1.57260
C         -0.12290        2.60650        1.75340
C         -0.82150        1.44320        2.41130
C         -1.82010        1.80690        3.22120
C         -2.44670        0.86930        4.15590
O         -3.37730        1.26480        4.85860
C         -1.93410       -0.53700        4.22340
C         -0.47110       -0.63550        3.73220
C         -0.28790       -0.04410        2.30110
C         -1.18240       -0.90210        1.36350
H          0.49970       -0.87340       -1.00950
H          1.48100       -1.61250       -2.24800
H          1.02130        0.08780       -2.37020
H          3.87270       -1.11530        0.69970
H          3.11350       -2.35330       -0.28770
H          2.15330       -2.07650        2.06240
H          1.00060       -2.06720        0.76470
H          1.88540        0.09720        2.65470
H          0.54940        1.03370        0.10390
H          3.52800        1.15890        0.42190
H          2.89370        3.04840       -0.93580
H          1.56710        2.17280       -1.68690
H          4.47680        2.02540       -2.31600
H          3.07430        1.62820       -3.32100
H          3.54900       -0.61380       -2.90680
H          5.22790        0.34720       -0.83790
H          1.83570        3.19820        1.06630
H          1.86440        2.25760        2.55710
H         -0.57530        2.80870        0.76110
H         -0.22560        3.52810        2.32890
H         -2.18880        2.83330        3.27590
H         -2.60820       -1.15970        3.63420
H         -1.99590       -0.87320        5.26270
H         -0.15680       -1.68340        3.76770
H          0.16860       -0.08580        4.44300
H         -0.96480       -1.96660        1.50680
H         -1.03520       -0.66490        0.31690
H         -2.24900       -0.78270        1.55340
