26
anti
C          0.91260        0.02850        0.06020
C          2.40600       -0.00980        0.11350
C          3.17840        1.07440        0.08540
C          4.56900        0.58230        0.05100
O          5.49890        1.37480        0.01330
N          4.52470       -0.82820        0.05330
N          3.14110       -1.19690        0.14960
C          2.58590       -2.46640       -0.27580
C          5.67230       -1.68880        0.05390
C          6.96590       -1.14660       -0.08500
C          8.11790       -1.93730       -0.18840
C          8.01220       -3.31800       -0.17280
C          6.76220       -3.89300        0.01480
C          5.61710       -3.08820        0.16780
H          0.53890        1.05930        0.08890
H          0.48470       -0.50780        0.91180
H          0.54210       -0.42130       -0.86510
H          2.91590        2.11640        0.03710
H          3.26120       -3.09020       -0.85610
H          1.71530       -2.32940       -0.92720
H          2.23710       -3.01400        0.60830
H          7.13070       -0.07420       -0.12170
H          9.08990       -1.46040       -0.29080
H          8.89840       -3.93700       -0.28730
H          6.67090       -4.97620        0.04680
H          4.69980       -3.61260        0.39070
