30
Carb
C         -3.55560       -0.04000        0.89240
C         -3.24970       -1.30900        0.41730
C         -2.09380       -1.50570       -0.33950
C         -1.21780       -0.43870       -0.61420
C         -1.51970        0.84120       -0.11150
C         -2.70230        1.03090        0.62260
C         -0.69310        2.02000       -0.39270
C          0.64590        2.01570       -0.38880
C          1.47300        0.83360       -0.10990
C          2.65450        1.02590        0.62550
C          3.52240       -0.03750        0.87480
C          3.23390       -1.29980        0.36840
C          2.07840       -1.49830       -0.38910
C          1.17950       -0.44390       -0.62910
N         -0.02440       -0.69220       -1.36770
C         -0.00160       -1.46760       -2.52690
O          0.98640       -1.97390       -3.05390
N         -1.19690       -1.57980       -3.18420
H         -4.45560        0.11970        1.48360
H         -3.90100       -2.14970        0.64290
H         -1.85700       -2.51130       -0.67940
H         -2.95800        2.01760        1.00330
H         -1.22200        2.94950       -0.58820
H          1.18200        2.94090       -0.58390
H          2.90430        2.00970        1.01690
H          4.42460        0.12140        1.45940
H          3.90390       -2.13360        0.56160
H          1.86900       -2.49820       -0.76350
H         -1.83710       -0.80310       -3.09180
H         -1.10230       -1.95420       -4.11900
