56
Carv
C         -2.59090       -3.47150       -5.97300
O         -1.55420       -3.47800       -4.99060
C         -1.01960       -4.70410       -4.67960
C         -0.90090       -5.69410       -5.66720
C         -0.41920       -6.96350       -5.35210
C         -0.01700       -7.24900       -4.05350
C         -0.06290       -6.25250       -3.07880
C         -0.54690       -4.97000       -3.37400
O         -0.49110       -4.13030       -2.27990
C         -1.05710       -2.84280       -2.46800
C         -1.13580       -2.02330       -1.16950
N         -1.67640       -0.66100       -1.38790
C         -3.04260       -0.68870       -1.93790
C         -3.64680        0.66800       -2.37410
C         -2.78620        1.32990       -3.46330
O         -3.30910        2.60930       -3.85190
C         -2.58650        3.21240       -4.86460
C         -1.18000        3.13380       -4.93210
C         -0.46240        3.71450       -5.97360
C         -1.11540        4.41810       -6.97880
C         -2.50610        4.53160       -6.89100
C         -3.26330        3.96560       -5.85960
C         -4.63590        4.32190       -6.11390
C         -5.85860        4.08750       -5.44910
C         -7.05280        4.56820       -6.00560
C         -7.05040        5.28620       -7.20110
C         -5.85100        5.54480       -7.87070
C         -4.66940        5.05620       -7.30060
N         -3.37500        5.17790       -7.73500
O         -4.97250        0.41470       -2.87120
H         -3.31800       -2.70190       -5.69450
H         -3.13790       -4.41910       -6.03950
H         -2.16620       -3.20450       -6.94510
H         -1.17890       -5.49240       -6.69760
H         -0.36080       -7.72610       -6.12290
H          0.34430       -8.24180       -3.79990
H          0.27390       -6.47820       -2.06960
H         -2.07910       -2.99030       -2.81710
H         -0.45210       -2.28120       -3.19020
H         -0.13100       -1.93170       -0.73700
H         -1.72950       -2.55200       -0.41460
H         -1.04160       -0.17810       -2.02100
H         -3.71390       -1.15780       -1.20860
H         -3.08740       -1.31590       -2.83350
H         -3.75240        1.33740       -1.51510
H         -2.74610        0.68090       -4.34800
H         -1.78540        1.45830       -3.04810
H         -0.60440        2.63150       -4.16260
H          0.62040        3.61950       -5.99700
H         -0.55560        4.87780       -7.78660
H         -5.87560        3.53970       -4.51080
H         -7.99320        4.39010       -5.48580
H         -7.98350        5.64650       -7.61920
H         -5.84530        6.10620       -8.79900
H         -3.09680        5.67660       -8.56670
H         -4.89470       -0.08740       -3.70060
