42
Clot
C         -1.51920       -0.08160        0.45630
C         -0.67840       -1.03810        1.01400
C          0.70820       -0.95540        0.83240
C          1.28770        0.06520        0.05150
C          0.41260        1.04860       -0.46180
C         -0.97440        0.96620       -0.27360
C          2.84910        0.19260       -0.17730
C          3.14030        0.88060       -1.59540
C          4.00000        1.97860       -1.79340
C          4.06290        2.64900       -3.02150
C          3.36750        2.16420       -4.12130
C          2.63300        0.99180       -4.00080
C          2.51660        0.36210       -2.75730
C          3.38950        0.98350        1.08940
C          3.35980        2.40210        1.09080
C          3.98910        3.16980        2.07790
C          4.56320        2.54920        3.17280
C          4.43900        1.17210        3.30520
C          3.83920        0.39630        2.29520
Cl         3.63760       -1.26810        2.72380
N          3.54700       -1.12750       -0.32910
C          4.91550       -1.32760       -0.29530
C          5.10120       -2.67130       -0.51370
N          3.91150       -3.28690       -0.78120
C          3.00780       -2.33210       -0.72300
H         -2.59010       -0.15110        0.59920
H         -1.09610       -1.85770        1.59440
H          1.31220       -1.72240        1.30080
H          0.78570        1.89640       -1.03210
H         -1.62370        1.72690       -0.69920
H          4.62980        2.36920       -1.00000
H          4.66010        3.55320       -3.11490
H          3.41830        2.68420       -5.07420
H          2.13420        0.57130       -4.87030
H          1.91000       -0.54080       -2.70580
H          2.87000        2.95040        0.28740
H          4.02950        4.25280        1.98250
H          5.06050        3.13280        3.94280
H          4.80470        0.69840        4.21390
H          5.61610       -0.52830       -0.08910
H          6.03150       -3.22450       -0.51370
H          1.96120       -2.47480       -0.94650
