52
Dana
C          1.44970       -1.11670       -0.13610
C          2.73420       -0.30300       -0.39050
C          2.37450        0.59550       -1.52780
C          3.55590        1.48320       -1.62290
C          4.49290        0.99020       -2.65410
C          5.08030       -0.33960       -2.17870
C          4.08140       -1.09950       -0.95980
C          4.82100       -1.21170        0.41250
C          4.60380        0.09910        1.20310
C          3.12730        0.49820        0.98620
C          2.93440        1.99050        1.00680
C          2.80520        3.19350        0.96860
O          2.32530        0.06900        2.07790
C          5.61590       -0.87900       -3.59310
C          6.37210        0.27240       -4.55800
C          6.06330        1.78910       -4.36100
C          6.23760        2.83730       -5.24420
C          5.78990        4.14870       -4.82880
C          5.18180        4.43870       -3.63820
C          4.83970        3.40780       -2.71880
C          5.56650        2.06020       -2.94630
C          6.83060        2.01460       -2.05090
C          4.64280        5.72290       -3.69460
N          5.02080        6.31120       -4.82290
O          5.73900        5.33330       -5.53680
H          1.19720       -1.77370       -0.96980
H          0.60450       -0.41430       -0.01960
H          1.47950       -1.70870        0.78060
H          1.47490        1.19340       -1.35230
H          2.18690        0.02090       -2.44760
H          4.23230        1.53460       -0.77660
H          3.11770        2.46880       -1.66210
H          3.89560        0.82230       -3.56890
H          6.01290       -0.22380       -1.62040
H          3.81700       -2.10070       -1.32260
H          5.88460       -1.44430        0.31240
H          4.36480       -2.02050        0.99970
H          5.30790        0.85840        0.84210
H          4.82580       -0.04060        2.26760
H          2.70420        4.25710        0.85930
H          2.72420       -0.71960        2.46760
H          4.78780       -1.28650       -4.18820
H          6.33520       -1.70010       -3.46110
H          6.21230        0.00190       -5.61110
H          7.45230        0.15940       -4.38600
H          6.60910        2.72470       -6.24230
H          3.79180        3.29050       -3.03010
H          4.88740        3.72590       -1.66860
H          6.57150        1.96600       -0.99140
H          7.45380        2.90010       -2.21400
H          7.47540        1.15380       -2.27150
H          3.94050        6.19340       -3.00760
