26
difl
C         -1.35110       -0.05010        0.04150
C         -0.73750        1.20540        0.07500
C          0.64830        1.30320       -0.01380
C          1.43380        0.15230       -0.10820
C          0.79470       -1.10440       -0.15730
C         -0.60720       -1.23790       -0.10260
C         -1.27380       -2.55870       -0.25010
C         -0.70540       -3.76060        0.21620
C         -1.30190       -5.00300       -0.00010
C         -2.50840       -5.06450       -0.67620
C         -3.12640       -3.90860       -1.12930
C         -2.51160       -2.66890       -0.92180
F         -3.08490       -6.25200       -0.90050
F          0.44950       -3.74740        0.90040
C          2.92700        0.15870       -0.18210
O          3.58850       -0.86570       -0.24490
O          3.49840        1.38200       -0.17620
O          1.23400        2.54250       -0.01870
H         -2.43680       -0.08830        0.12320
H         -1.36300        2.08870        0.16050
H          1.41840       -1.99320       -0.26370
H         -0.82310       -5.90950        0.35190
H         -4.07450       -3.97600       -1.65480
H         -3.00810       -1.78680       -1.32170
H          2.83420        2.10420       -0.11910
H          0.53130        3.22000       -0.02530
