26
Emtr
C         -0.90960       -1.02420       -0.33720
C         -1.02990        0.33830        0.36730
O          0.14190        1.09560       -0.00450
C          1.30810        0.25180        0.04810
S          0.81780       -1.48230       -0.11490
C          2.29510        0.66110       -1.05390
O          1.76190        0.45560       -2.36450
N         -1.19620        0.30730        1.82900
C         -0.40760        1.07370        2.66700
C         -0.57290        1.03310        3.98270
C         -1.65630        0.17470        4.50100
N         -2.45880       -0.47450        3.71260
C         -2.29830       -0.39700        2.34440
O         -3.10910       -0.93150        1.59090
N         -1.85320        0.05570        5.85170
F          0.17060        1.73080        4.85720
H         -1.06630       -0.89900       -1.41420
H         -1.57590       -1.80940        0.01970
H         -1.90460        0.86920       -0.02870
H          1.79130        0.39150        1.02000
H          3.22980        0.09600       -0.97140
H          2.53070        1.72660       -0.96730
H          1.41240       -0.45430       -2.37880
H          0.35370        1.71450        2.23900
H         -1.51000        0.81060        6.43500
H         -2.77680       -0.28370        6.09910
