73
ergo
C          3.03730        2.18470        3.30520
C          4.31120        2.00330        2.47510
C          4.35780        0.55240        1.96410
C          4.38890        3.03720        1.31610
C          4.48690        4.48340        1.81230
C          5.57470        2.74140        0.43360
C          5.46750        2.42210       -0.86580
C          6.64010        1.96340       -1.68840
C          6.37040        0.57820       -2.28550
C          7.14560        2.97140       -2.73640
C          7.69240        4.28250       -2.09520
C          7.24440        5.44590       -2.97080
C          5.98250        4.91300       -3.62830
C          6.28190        3.41850       -3.97880
C          4.89830        2.80290       -4.31720
C          4.23090        3.57030       -5.48060
C          3.96850        5.03080       -5.12390
C          5.22150        5.74960       -4.65170
C          5.52130        7.03860       -4.95780
C          4.67710        7.90860       -5.75040
C          4.83980        9.20940       -6.06970
C          5.99780       10.10630       -5.72340
C          6.64160       10.68470       -6.98040
C          5.61560       11.37580       -7.88850
C          4.43350       10.46280       -8.19190
C          3.85770        9.88630       -6.92750
C          2.55200        9.97750       -6.61620
O          7.66610       11.61740       -6.63410
C          7.19260        3.07260       -5.19150
H          2.96900        1.41720        4.08350
H          2.14470        2.10630        2.67520
H          3.01960        3.15540        3.80800
H          5.17270        2.14700        3.14160
H          3.55700        0.36330        1.24080
H          4.24500       -0.15600        2.79010
H          5.31470        0.32390        1.48150
H          3.47030        2.95620        0.72030
H          5.35650        4.63040        2.46260
H          3.59210        4.77420        2.37070
H          4.57710        5.18050        0.97050
H          6.55210        2.72780        0.91620
H          4.48960        2.42750       -1.33710
H          7.48370        1.81250       -0.99870
H          5.50280        0.56470       -2.94150
H          6.18880       -0.15430       -1.49360
H          7.23990        0.23180       -2.85980
H          8.05310        2.47700       -3.11630
H          8.78590        4.26320       -2.02880
H          7.32260        4.42610       -1.07490
H          8.01030        5.72360       -3.69720
H          7.02460        6.32440       -2.34820
H          5.25770        4.86940       -2.79340
H          4.22170        2.84940       -3.45860
H          4.97860        1.75310       -4.61270
H          3.28640        3.09080       -5.75490
H          4.84810        3.53810       -6.38640
H          3.22310        5.07590       -4.31950
H          3.51460        5.49860       -5.99910
H          6.41040        7.49130       -4.51880
H          3.76020        7.45600       -6.12500
H          6.75430        9.60630       -5.11080
H          5.63120       10.93350       -5.07930
H          7.12440        9.87310       -7.53660
H          6.09460       11.69140       -8.81670
H          5.25710       12.29670       -7.40720
H          4.76110        9.63410       -8.83630
H          3.67530       11.01650       -8.75990
H          1.84220       10.47200       -7.26480
H          2.15830        9.56150       -5.69360
H          7.24950       12.36030       -6.16480
H          8.23930        3.35390       -5.04250
H          6.87520        3.49490       -6.14360
H          7.18940        1.97430       -5.31360
