31
Fluo
C         -1.04870        0.68240       -1.38800
C         -0.98180       -0.27660       -0.39260
C          0.25870       -0.64130        0.12170
C          1.47120       -0.09400       -0.36010
C          1.38460        0.89740       -1.33980
C          0.12840        1.28290       -1.84700
C          2.73270       -0.66170        0.12570
C          2.80740       -1.77160        0.85900
O          4.01270       -2.26990        1.20480
C          4.97860       -1.62440        0.31690
C          4.18040       -0.37690       -0.08680
O          4.61920        0.66910       -0.53520
C          6.18360       -1.68750        1.18230
C          6.62720       -0.90830        2.23530
C          7.34320       -1.54970        3.25770
C          7.57430       -2.94000        3.22510
C          7.21130       -3.69060        2.10860
C          6.58080       -3.01980        1.07870
C          5.98280       -3.58300       -0.13640
O          6.10290       -4.71200       -0.56310
O          5.26850       -2.56550       -0.71050
H         -2.01490        0.95830       -1.80250
H         -1.88150       -0.76140       -0.01830
H          0.24310       -1.39870        0.90090
H          2.27530        1.37330       -1.74220
H          0.06430        2.04310       -2.62100
H          2.00920       -2.36730        1.25470
H          6.36060        0.14010        2.32830
H          7.65970       -0.98380        4.13260
H          8.01140       -3.43680        4.08970
H          7.33300       -4.76970        2.08130
