31
Flur
C          2.26450       -0.96600        1.33320
C          2.44790       -0.09040        0.09230
C          2.88610        1.32280        0.44800
C          2.08180        2.41220        0.10040
C          2.52780        3.72050        0.30590
C          3.77860        4.01230        0.87980
C          4.54440        2.90160        1.28250
C          4.11530        1.58210        1.06250
C          4.29470        5.40290        0.99850
C          3.44080        6.50370        1.19390
C          3.92310        7.81840        1.21180
C          5.28280        8.06540        1.05980
C          6.15790        6.99770        0.89980
C          5.66920        5.68660        0.86540
F          1.72110        4.70510       -0.12250
C          3.38980       -0.75300       -0.91300
O          3.89680       -1.85590       -0.77050
O          3.59020       -0.02250       -2.03890
H          1.50660       -0.54390        2.00150
H          3.19460       -1.07420        1.90130
H          1.93760       -1.97300        1.05050
H          1.47060       -0.05040       -0.40960
H          1.10690        2.27310       -0.36150
H          5.51060        3.04620        1.76690
H          4.77200        0.76450        1.35870
H          2.36980        6.35900        1.32300
H          3.23050        8.64710        1.33360
H          5.65720        9.08550        1.06230
H          7.22370        7.18250        0.78320
H          6.38830        4.88720        0.70230
H          3.15490        0.85210       -2.02800
