43
Glaf
C         -0.48690       -1.41000        0.12190
C         -1.32190       -0.31270        0.29980
C         -0.79920        0.98440        0.25440
C          0.56380        1.21380       -0.00040
C          1.41380        0.08880       -0.10670
C          0.87900       -1.21280       -0.06070
C          2.87050        0.25030       -0.35590
O          3.35360        1.19620       -0.95370
O          3.55640       -0.80580        0.15790
C          4.88900       -0.99840       -0.33690
C          5.95300       -0.08180        0.27250
C          6.09060       -0.24930        1.78770
O          7.13220        0.59940        2.27310
O          7.23620       -0.36540       -0.31970
N          1.04090        2.53310       -0.18000
C          0.67850        3.76140        0.42340
C          0.79300        4.97610       -0.30420
C          1.12980        5.03800       -1.67760
C          1.19230        6.26000       -2.34890
C          0.94860        7.43290       -1.64990
C          0.62950        7.39140       -0.29660
C          0.51790        6.18360        0.37900
N          0.13320        6.21730        1.66160
C         -0.02850        5.04350        2.30650
C          0.21540        3.80810        1.73610
Cl         1.01210        8.94600       -2.46910
H         -0.89780       -2.41710        0.11500
H         -2.38970       -0.46240        0.44320
H         -1.48590        1.82290        0.35230
H          1.51840       -2.08140       -0.20160
H          4.89180       -0.92240       -1.43140
H          5.14970       -2.04270       -0.12350
H          5.73590        0.96810        0.05230
H          6.37600       -1.27500        2.04210
H          5.16580        0.00500        2.31090
H          7.81690        0.62480        1.57380
H          7.44610       -1.30180       -0.15230
H          1.97060        2.57030       -0.61010
H          1.30440        4.12700       -2.24420
H          1.41630        6.28410       -3.41220
H          0.44090        8.31440        0.24650
H         -0.36180        5.12830        3.33650
H          0.08470        2.91050        2.32930
