28
Hydr
C         -2.40870        0.77140       -0.28690
N         -1.18810        1.38660        0.18240
C         -0.00160        0.66640        0.01600
C          0.04090       -0.72310       -0.07350
C          1.23980       -1.43410       -0.11660
C          2.45710       -0.74610       -0.06340
C          2.47240        0.65580        0.03700
C          1.22780        1.33570        0.09920
C          3.72110        1.51070        0.07560
F          4.90520        0.86070        0.02820
F          3.74410        2.39240       -0.96520
F          3.76580        2.28080        1.19960
S          3.96510       -1.68180       -0.08990
O          4.62120       -1.42140       -1.34700
O          4.59040       -1.54370        1.20260
N          3.46170       -3.28190       -0.17320
S         -1.46720       -1.62760       -0.10620
O         -1.40610       -2.63200        0.93230
O         -1.73400       -1.95540       -1.48750
N         -2.57530       -0.48300        0.39350
H         -2.41620        0.66250       -1.37760
H         -3.25300        1.41830       -0.02870
H         -1.10820        2.35670       -0.11750
H          1.20110       -2.51910       -0.18270
H          1.23470        2.42110        0.21610
H          3.78580       -3.70560       -1.04380
H          3.75350       -3.78750        0.66460
H         -2.60550       -0.41250        1.40750
