27
Meph
C          0.95260        0.08530       -0.00480
C          2.45340        0.02590       -0.10380
C          3.16250        1.24380       -0.09370
C          4.55200        1.26820       -0.17660
C          5.25560        0.07680       -0.27480
C          4.56920       -1.13620       -0.28440
C          3.16960       -1.18560       -0.19810
O          2.45010       -2.37130       -0.20580
C          3.26010       -3.55580       -0.33250
C          2.44620       -4.84970       -0.34740
C          1.64160       -5.08530        0.92770
O          1.02400       -6.37390        0.85830
O          1.55320       -4.89080       -1.46580
H          0.60360        1.12340        0.07340
H          0.59940       -0.43870        0.88780
H          0.48980       -0.34140       -0.89900
H          2.63100        2.19000       -0.02060
H          5.08310        2.21400       -0.17100
H          6.34030        0.08230       -0.34020
H          5.17800       -2.02980       -0.36420
H          3.95850       -3.61290        0.51180
H          3.80230       -3.50530       -1.28430
H          3.13730       -5.69370       -0.48500
H          0.84360       -4.34650        1.03850
H          2.28180       -5.06570        1.81440
H          0.74700       -6.48580       -0.07330
H          1.10210       -4.02570       -1.49810
