46
Nand
C          1.14460       -0.67880       -1.50340
C          2.52350       -0.36640       -0.85340
C          2.81460       -1.41020        0.23740
C          1.72880       -1.38360        1.34440
C          1.36020        0.03150        1.88230
C          1.52370        1.17750        0.85500
C          2.62390        1.00440       -0.15820
C          2.56700        1.98740       -1.32430
C          3.40280        1.31300       -2.41440
C          3.54480       -0.17140       -1.99610
O          4.87830       -0.42040       -1.57050
C          1.60740        2.47610        1.65630
C          0.18410        2.79850        2.07950
C         -0.53070        1.62580        2.71680
C         -1.59950        1.89230        3.49840
C         -2.40450        0.80360        4.08930
O         -3.42140        1.09460        4.70900
C         -1.98510       -0.62240        3.83020
C         -0.48240       -0.73250        3.56120
C         -0.11470        0.17660        2.38360
H          0.32490       -0.72570       -0.78100
H          1.17760       -1.65300       -2.00480
H          0.85160        0.06110       -2.25370
H          3.79140       -1.21670        0.70070
H          2.87500       -2.41420       -0.19960
H          2.08250       -2.00370        2.17980
H          0.83230       -1.89400        0.97560
H          2.03930        0.20260        2.73140
H          0.60460        1.22380        0.25360
H          3.59610        1.11480        0.34350
H          2.94680        2.97940       -1.06290
H          1.53500        2.12880       -1.67390
H          4.37500        1.80920       -2.50210
H          2.88570        1.41050       -3.37560
H          3.34980       -0.83060       -2.84810
H          5.14880        0.29140       -0.96720
H          2.02550        3.30090        1.07290
H          2.25410        2.36370        2.53820
H         -0.37320        3.09900        1.17990
H          0.19870        3.67160        2.75330
H         -1.94000        2.90700        3.68370
H         -2.55780       -0.99250        2.97070
H         -2.24880       -1.22170        4.70790
H         -0.22960       -1.77830        3.35330
H          0.07710       -0.43280        4.45690
H         -0.74510       -0.12910        1.53150
