32
nilu
C          1.07360       -0.03160        0.29560
C          2.57630       -0.05210        0.10110
C          3.31320        1.10970        0.77760
O          2.90040        2.26350        0.75840
N          4.52560        0.62270        1.23750
C          4.44190       -0.75390        1.29740
O          5.24700       -1.57980        1.69660
N          3.22090       -1.14300        0.77580
C          5.70650        1.40000        1.44580
C          5.71900        2.79050        1.20570
C          6.91070        3.54750        1.16780
C          8.11230        2.87930        1.41290
C          8.13320        1.51960        1.72940
C          6.93620        0.79630        1.75330
N          9.39130        3.55520        1.28220
O          9.59190        4.53440        2.00650
O         10.19020        3.08560        0.45980
C          6.86160        5.00660        0.78870
F          5.60950        5.43000        0.45700
F          7.27030        5.83470        1.78170
F          7.63440        5.27820       -0.29640
C          2.96180       -0.02390       -1.38240
H          0.80560       -0.05060        1.35840
H          0.60780       -0.90250       -0.17900
H          0.62900        0.87000       -0.14080
H          3.05640       -2.12490        0.59320
H          4.79620        3.32340        0.98510
H          9.07320        1.00310        1.92120
H          7.01710       -0.26660        1.97180
H          2.55710        0.86710       -1.87500
H          2.58800       -0.91000       -1.90450
H          4.05130        0.00230       -1.52230
