42
Niza
C          9.82370        2.95830        0.14860
N          8.56030        2.77200       -0.54660
C          7.41900        2.20360       -0.01740
C          6.73220        2.60870        1.07190
N          7.00760        3.73730        1.91870
O          8.00320        4.44340        1.74420
O          6.17710        3.92230        2.82230
N          6.87440        1.11020       -0.70530
C          7.37880        0.50830       -1.92780
C          6.92250       -0.94340       -2.08390
S          7.59850       -1.71470       -3.59950
C          9.39030       -1.60060       -3.24420
C         10.20650       -2.12700       -4.37800
C         10.32920       -1.56290       -5.63550
S         11.39210       -2.49230       -6.60160
C         11.61240       -3.58140       -5.28840
N         10.96750       -3.26840       -4.18090
C         12.44440       -4.82800       -5.45710
N         13.90540       -4.62380       -5.33340
C         14.26910       -4.16470       -3.98930
C         14.58940       -5.88820       -5.62020
H         10.64880        2.80550       -0.55790
H          9.95230        2.24670        0.97090
H          9.93060        3.98020        0.51540
H          8.71950        2.47820       -1.50130
H          5.82570        2.12790        1.41930
H          5.89730        0.91330       -0.50040
H          8.46880        0.52390       -1.88470
H          7.05530        1.10680       -2.78640
H          5.82910       -0.98470       -2.15300
H          7.20810       -1.54720       -1.21560
H          9.60800       -2.15460       -2.32530
H          9.68210       -0.55810       -3.09510
H          9.84590       -0.67690       -6.02290
H         12.22300       -5.24200       -6.45000
H         12.09880       -5.57320       -4.72810
H         13.85170       -3.17450       -3.77970
H         15.35710       -4.05740       -3.90510
H         13.93460       -4.85780       -3.20880
H         14.35410       -6.23290       -6.63340
H         14.30750       -6.67900       -4.91460
H         15.67640       -5.75960       -5.57750
