48
nore
C          1.52420       -0.45940        1.00190
C          2.90350        0.16400        0.70880
C          2.68780        1.35530       -0.23440
C          2.77640        2.67330        0.52350
C          4.20280        2.85410        1.07340
C          4.66450        1.70380        1.97730
C          3.63620        0.55970        2.08260
C          4.43630       -0.67300        2.55360
C          4.17170       -1.67680        1.48540
C          3.90600       -0.81690        0.16850
C          3.86850       -2.04940       -0.72030
C          3.83640       -3.10660       -1.48270
O          5.18560       -0.23090       -0.12620
C          5.16220        2.10990        3.37380
C          6.15090        3.25410        3.27670
C          5.59590        4.38520        2.45070
C          4.59050        4.22810        1.56870
C          3.93270        5.37180        0.86380
C          4.43740        6.76450        1.16880
C          5.53120        6.87640        2.18900
O          5.87120        7.99620        2.61520
C          6.33540        5.67070        2.59450
H          0.76120        0.32080        1.11130
H          1.50540       -1.03590        1.93120
H          1.20730       -1.11500        0.18370
H          1.72080        1.28240       -0.74650
H          3.40850        1.37090       -1.05960
H          2.03160        2.71520        1.32500
H          2.52660        3.46170       -0.19260
H          4.83160        2.76200        0.16960
H          5.57740        1.32660        1.49340
H          2.88240        0.80840        2.83880
H          4.16590       -1.02630        3.55050
H          5.52360       -0.50760        2.56630
H          3.30510       -2.29900        1.75110
H          5.03080       -2.35870        1.39240
H          3.82020       -3.97090       -2.10540
H          5.07140        0.56170       -0.66670
H          5.66000        1.27080        3.87400
H          4.31120        2.38570        4.01310
H          7.09980        2.90950        2.85100
H          6.35840        3.59780        4.29750
H          2.86350        5.34630        1.11680
H          3.99590        5.20810       -0.21740
H          4.78120        7.22720        0.23630
H          3.59670        7.36280        1.54100
H          6.64250        5.82100        3.64050
H          7.23790        5.62670        1.96640
