43
omep
C          1.21030       -0.36230        0.99660
C          2.62140       -0.26540        0.50290
C          3.63350       -0.39920        1.45190
N          4.96030       -0.32620        1.20350
C          5.36240       -0.13070       -0.07620
C          4.42940       -0.02740       -1.12120
C          3.03650       -0.05270       -0.81650
O          2.25570        0.15610       -1.92320
C          0.84430        0.22000       -1.86840
C          4.86580        0.17460       -2.55100
C          6.86130        0.01060       -0.26210
S          7.68570       -1.58880       -0.42220
O          7.50630       -2.21570       -1.77450
C          9.35800       -1.11720       -0.32610
N          9.84630       -0.18290        0.46220
C         11.21160       -0.25840        0.31320
C         11.56720       -1.27090       -0.57210
N         10.36070       -1.75190       -1.02270
C         12.90100       -1.61710       -0.83170
C         13.90500       -0.88320       -0.17280
C         13.56580        0.17060        0.68100
C         12.22290        0.49210        0.92880
O         15.18450       -1.30480       -0.43760
C         16.24220       -0.63970        0.24900
H          1.17120       -0.60420        2.06530
H          0.67150       -1.16680        0.48950
H          0.68590        0.59020        0.88090
H          3.39720       -0.57010        2.50070
H          0.48840        0.46140       -2.87580
H          0.49650        1.02300       -1.21450
H          0.41470       -0.74990       -1.60760
H          5.85680       -0.24150       -2.74340
H          4.87280        1.24220       -2.79030
H          4.19430       -0.34170       -3.24630
H          7.25740        0.49860        0.63680
H          7.11280        0.65820       -1.10690
H         10.21230       -2.50540       -1.67970
H         13.16030       -2.43400       -1.50020
H         14.32380        0.76040        1.18170
H         11.96320        1.30010        1.60370
H         17.18360       -1.12960       -0.01940
H         16.12990       -0.71940        1.33610
H         16.31190        0.40730       -0.06410
