34
pent
C          6.34450       -1.48450        1.48900
C          5.15610       -0.94430        0.70480
C          5.56360        0.27930       -0.12270
C          4.43310        0.88720       -0.99890
C          3.24540        1.29730       -0.10680
C          4.95990        2.04920       -1.95270
C          3.78370        2.56680       -2.77310
O          3.35670        2.00070       -3.77760
N          3.13800        3.67530       -2.29470
C          3.55680        4.47340       -1.27700
O          2.96050        5.50340       -0.98280
N          4.70170        4.10810       -0.64300
C          5.57000        3.16120       -1.10630
O          6.75560        3.20710       -0.78710
C          6.03090        1.48280       -2.93780
C          6.57320        2.48310       -3.95910
H          6.04890       -2.36130        2.07280
H          6.72820       -0.72860        2.18230
H          7.15860       -1.77890        0.81900
H          4.36790       -0.68980        1.41950
H          4.76710       -1.72800        0.04510
H          6.39710       -0.03230       -0.75880
H          5.95210        1.04460        0.55930
H          4.05770        0.08570       -1.65190
H          3.54220        2.02720        0.65250
H          2.82690        0.43270        0.41780
H          2.41670        1.71040       -0.68700
H          2.32980        3.99010       -2.81360
H          5.09170        4.80650       -0.02520
H          5.61330        0.62730       -3.48510
H          6.90110        1.10580       -2.39110
H          5.78440        2.88940       -4.59820
H          7.30030        1.98520       -4.61010
H          7.08730        3.31600       -3.47140
