83
prob
C          6.35970        1.66610        0.76050
C          6.48960        1.55640       -0.78040
C          7.48570        2.62650       -1.28240
C          7.14990        0.18560       -1.04960
C          5.09390        1.79870       -1.40590
C          4.47100        3.04180       -1.15630
C          3.20340        3.35570       -1.64850
C          2.48200        2.36970       -2.32780
C          3.02220        1.09040       -2.59590
C          4.36040        0.87230       -2.18100
O          4.98540       -0.26320       -2.60590
C          2.16690        0.03120       -3.34960
C          2.37850        0.21560       -4.86400
C          2.49140       -1.44170       -2.98700
C          0.65070        0.17830       -3.04850
S          2.49850        4.96480       -1.30030
C          3.04410        6.01170       -2.77000
C          4.55670        5.93060       -2.97200
C          2.25220        5.55570       -3.99750
S          2.60590        7.78790       -2.32190
C          3.00110        8.70260       -3.81190
C          2.01840        8.88880       -4.78430
C          2.24010        9.62290       -5.97250
C          3.53880       10.18010       -6.12450
C          4.56490       10.04120       -5.14720
C          4.24800        9.30290       -3.98440
C          5.98010       10.66060       -5.33230
C          5.90970       12.20220       -5.44110
C          6.94460       10.36070       -4.15400
C          6.67040       10.08770       -6.59310
O          3.88040       10.91220       -7.22910
C          1.07140        9.79880       -6.98140
C         -0.24610        9.10470       -6.52640
C          0.71450       11.29400       -7.14200
C          1.39260        9.16860       -8.35770
H          7.31780        1.47120        1.25530
H          5.63250        0.93930        1.14310
H          6.03230        2.65900        1.08560
H          8.48540        2.46210       -0.86240
H          7.19000        3.64240       -1.00080
H          7.57430        2.59820       -2.37470
H          8.11670        0.10800       -0.53630
H          7.35120        0.03130       -2.11520
H          6.53760       -0.64230       -0.67610
H          4.98910        3.79870       -0.57020
H          1.47750        2.62270       -2.65670
H          4.81020       -0.93010       -1.92100
H          3.42230        0.03350       -5.14680
H          2.12240        1.23130       -5.18400
H          1.75520       -0.48070       -5.43670
H          3.43620       -1.78540       -3.41950
H          1.73370       -2.12790       -3.38540
H          2.52710       -1.58820       -1.90150
H          0.23600        1.11910       -3.42260
H          0.45640        0.11790       -1.97140
H          0.07200       -0.61690       -3.53270
H          4.88130        4.91310       -3.22170
H          5.10640        6.24890       -2.07880
H          4.88840        6.55120       -3.80870
H          2.46230        4.51080       -4.24670
H          2.51720        6.12950       -4.89030
H          1.17030        5.65070       -3.84490
H          1.04990        8.44230       -4.57820
H          4.97430        9.18480       -3.18520
H          5.43740       12.64040       -4.55450
H          5.35070       12.54750       -6.31500
H          6.91470       12.63440       -5.52860
H          6.58090       10.79260       -3.21430
H          7.93880       10.78690       -4.33620
H          7.08270        9.28280       -4.01000
H          6.15490       10.34500       -7.52210
H          6.73470        8.99470       -6.54400
H          7.69150       10.47650       -6.69240
H          3.18890       10.87970       -7.89750
H         -0.61660        9.51750       -5.58060
H         -0.11000        8.02310       -6.40410
H         -1.04480        9.24040       -7.26530
H          0.42160       11.73100       -6.17980
H         -0.12680       11.42390       -7.83350
H          1.53460       11.90070       -7.53230
H          1.64280        8.10660       -8.25440
H          2.21820        9.64420       -8.88910
H          0.52540        9.23920       -9.02690
