14
pyra
C         -1.28530       -0.07060        0.07220
C         -0.64440        1.15850        0.00620
N          0.70300        1.27980       -0.05430
C          1.38210        0.09440       -0.04550
C          0.74230       -1.13420        0.02150
N         -0.61020       -1.24330        0.08200
C          2.86770        0.15180       -0.11270
O          3.56440       -0.85510       -0.11560
N          3.41210        1.40640       -0.17360
H         -2.36630       -0.14540        0.11900
H         -1.20770        2.08540        0.00020
H          1.29590       -2.06730        0.02830
H          2.80950        2.22150       -0.17120
H          4.41530        1.51140       -0.22500
