55
spip
C          0.64530        1.36700       -0.15390
C          2.10360        1.03910       -0.44250
N          2.67840       -0.04400        0.37340
C          1.82130       -1.23170        0.51760
C          0.38230       -0.93920        0.87920
C         -0.24730        0.13650       -0.00950
C         -1.51210        0.58440        0.75540
O         -1.59580        1.25140        1.77250
N         -2.59280        0.04470        0.10930
C         -2.25870       -0.69710       -1.05650
N         -0.84010       -0.42610       -1.27120
C         -0.29090       -0.46050       -2.54140
C         -1.02050       -0.14120       -3.69500
C         -0.43390       -0.09150       -4.97510
C          0.91660       -0.36630       -5.14810
C          1.65430       -0.74370       -4.05130
C          1.03640       -0.81340       -2.79370
C          3.14510        0.48870        1.66020
C          3.91930       -0.53110        2.49400
C          5.05480       -1.17710        1.69900
C          5.72380       -2.27550        2.49490
O          5.38070       -2.57910        3.63430
C          6.86960       -2.98380        1.86970
C          7.84750       -3.51200        2.71690
C          8.95650       -4.16620        2.19180
C          9.07510       -4.30250        0.81580
C          8.10350       -3.79820       -0.04530
C          6.99780       -3.12940        0.47970
F         10.14030       -4.93310        0.30210
H          0.25060        2.05180       -0.91460
H          0.63480        1.93900        0.78490
H          2.69450        1.95800       -0.32250
H          2.24600        0.82400       -1.50000
H          2.22450       -1.93600        1.25080
H          1.85840       -1.85640       -0.37250
H          0.36550       -0.61820        1.93070
H         -0.20010       -1.86900        0.84640
H         -3.53070        0.18820        0.45370
H         -2.93300       -0.37230       -1.85150
H         -2.42240       -1.75890       -0.84580
H         -2.06930        0.13290       -3.64060
H         -1.03660        0.18540       -5.83400
H          1.38590       -0.29130       -6.12340
H          2.71480       -0.97480       -4.13790
H          1.68830       -1.15150       -2.01260
H          2.30950        0.88450        2.24760
H          3.82730        1.32640        1.46540
H          3.24040       -1.29810        2.88480
H          4.32530       -0.02840        3.37860
H          5.80380       -0.41860        1.44580
H          4.66840       -1.61530        0.77450
H          7.74840       -3.40400        3.80060
H          9.72500       -4.56780        2.84390
H          8.21540       -3.92820       -1.11730
H          6.24030       -2.75870       -0.20570
