25
Sulf
C         -0.78200        1.17890       -0.00430
C          0.61030        1.27850       -0.01890
C          1.38330        0.11610       -0.02450
C          0.77440       -1.13970       -0.02260
C         -0.62090       -1.22450       -0.00600
C         -1.40950       -0.06960       -0.05140
N         -2.79940       -0.16070        0.08370
S          3.14530        0.25380       -0.12510
O          3.64970       -0.98630       -0.68450
O          3.48070        1.51430       -0.75080
N          3.63580        0.23500        1.48850
C          3.82040        1.53480        2.00310
N          2.82030        2.18300        2.54610
C          3.28760        3.37090        3.07740
C          4.63040        3.62120        2.88540
S          5.35710        2.27400        2.10930
H         -1.37400        2.08940        0.03730
H          1.08080        2.25930       -0.01170
H          1.36980       -2.04960       -0.02590
H         -1.08930       -2.20450        0.03330
H         -3.19000       -1.02790       -0.27090
H         -3.29710        0.65380       -0.26240
H          4.47560       -0.33750        1.52370
H          2.59980        4.02680        3.59830
H          5.20620        4.48630        3.18150
