42
Suli
C          0.78810        0.24910        0.06190
C          2.27930        0.21590        0.14670
C          3.11490        1.28380        0.18690
C          4.49830        0.76990        0.13270
C          4.48300       -0.63310        0.08400
C          3.05980       -1.03350        0.08890
C          2.68350       -2.32700        0.03560
C          1.35400       -2.95260        0.14900
C          0.65200       -3.42050       -0.96810
C         -0.56880       -4.10310       -0.81000
C         -1.09540       -4.34590        0.46530
C         -0.37830       -3.90310        1.58090
C          0.82980       -3.20780        1.42230
S         -2.74970       -5.05490        0.68870
O         -3.33080       -5.20160       -0.68660
C         -2.31760       -6.71110        1.27060
C          5.66890       -1.35640        0.05850
C          6.87820       -0.65450        0.05680
C          6.88020        0.74280        0.08220
C          5.69520        1.47240        0.12550
F          8.05020        1.39490        0.06530
C          2.80860        2.75480        0.15880
C          3.21050        3.61790        1.35190
O          3.11850        4.84010        1.32640
O          3.65720        2.97820        2.44550
H          0.38940        1.26040        0.18010
H          0.32850       -0.35740        0.84580
H          0.45790       -0.11560       -0.91630
H          3.45350       -3.09320       -0.04730
H          1.04060       -3.26270       -1.97250
H         -1.11500       -4.43130       -1.69410
H         -0.75850       -4.07070        2.58530
H          1.36410       -2.86670        2.30630
H         -1.74080       -6.65810        2.19630
H         -1.76160       -7.25320        0.50250
H         -3.25070       -7.24800        1.47290
H          5.67690       -2.44060        0.03730
H          7.82640       -1.18440        0.02980
H          5.74240        2.55640        0.14750
H          1.73440        2.91650        0.02650
H          3.30440        3.18630       -0.72060
H          3.68970        2.00280        2.37180
