39
toln
C          4.09900        3.18990       -5.14820
C          4.94380        2.58620       -4.06390
C          4.69900        2.87730       -2.71390
C          5.47800        2.31450       -1.68990
C          6.51090        1.43920       -2.05400
C          6.76860        1.14660       -3.39880
C          5.98770        1.72080       -4.39740
N          5.18870        2.57870       -0.30480
C          5.46860        1.52170        0.67080
C          4.69490        3.81870        0.13710
S          4.00400        4.13320        1.63910
O          4.97090        4.88240       -0.74590
C          4.24280        6.09440       -0.84030
C          2.85370        6.06540       -0.91890
C          2.14220        7.25920       -1.03540
C          0.74140        7.24780       -1.03860
C          0.02660        8.43610       -1.15450
C          0.70500        9.64560       -1.28190
C          2.10330        9.67210       -1.27340
C          2.84260        8.48380       -1.13710
C          4.25090        8.48000       -1.10290
C          4.95440        7.28390       -0.94960
H          3.27180        3.77620       -4.73430
H          3.66710        2.40210       -5.77420
H          4.70520        3.85320       -5.77300
H          3.86090        3.52100       -2.47120
H          7.16120        0.98750       -1.30880
H          7.57850        0.47280       -3.66320
H          6.19300        1.48550       -5.43920
H          5.61780        0.54570        0.20170
H          4.62770        1.40590        1.36090
H          6.35820        1.80510        1.24190
H          2.32770        5.11680       -0.87440
H          0.19900        6.31060       -0.93250
H         -1.06000        8.41520       -1.14240
H          0.14530       10.57180       -1.38000
H          2.61170       10.62870       -1.37090
H          4.80350        9.41260       -1.18540
H          6.03940        7.28570       -0.91360
