42
Zolm
C          1.10720        0.78470        0.63450
N          2.49010        0.44680        0.27840
C          3.30250        1.66450        0.26160
C          3.00940       -0.55350        1.23350
C          4.44400       -1.03840        0.95080
C          4.87050       -2.07820        1.94310
C          5.51890       -1.85130        3.14150
N          5.68170       -3.05350        3.77500
C          5.14950       -4.06770        3.01350
C          4.64710       -3.48740        1.85110
C          4.03640       -4.31910        0.88960
C          3.94290       -5.70380        1.11030
C          4.45030       -6.24300        2.30050
C          5.06390       -5.43930        3.26890
C          3.26020       -6.59550        0.10060
C          3.88900       -6.55680       -1.29180
C          5.31780       -7.06150       -1.35870
O          5.43430       -7.59180       -2.69000
C          4.17370       -7.85950       -3.14270
O          3.90810       -8.37250       -4.21520
N          3.24830       -7.42680       -2.22950
H          0.68640        1.49920       -0.08180
H          1.03540        1.22110        1.63800
H          0.46990       -0.10590        0.59950
H          2.85510        2.41870       -0.39580
H          4.29780        1.46690       -0.14830
H          3.41360        2.10170        1.26040
H          2.34860       -1.43140        1.19960
H          2.95340       -0.16450        2.25980
H          5.15330       -0.20460        1.00440
H          4.50850       -1.44500       -0.06540
H          5.86400       -0.93430        3.60130
H          6.11380       -3.18060        4.67940
H          3.62810       -3.87000       -0.01150
H          4.36430       -7.31050        2.49770
H          5.44500       -5.87000        4.18920
H          2.20810       -6.28880        0.03560
H          3.24110       -7.63130        0.46490
H          3.83370       -5.54920       -1.72400
H          5.52750       -7.87250       -0.65330
H          6.04830       -6.26040       -1.21530
H          2.29720       -7.32510       -2.55850
