23

N     -2.345035   -0.450846    0.879275
C     -2.766389    0.262100   -0.270874
N     -3.999440    0.964368   -0.209991
N     -2.087638    0.300183   -1.355784
C     -0.846987   -0.358203   -1.536452
O     -0.730111   -1.184045   -2.451926
C      0.297377   -0.084602   -0.666939
N      0.240375    0.797476    0.343407
C      1.306089    1.031532    1.128773
Cl     1.236803    2.191048    2.459593
C      2.508541    0.381735    0.939871
N      3.628163    0.650740    1.792101
N      2.581493   -0.504748   -0.068020
C      1.498501   -0.741553   -0.864896
N      1.541962   -1.665832   -1.931392
H     -2.038480   -0.008289    1.767275
H     -2.344869   -1.488540    0.824434
H     -4.713922    0.787529   -0.921483
H     -4.173887    1.652856    0.552275
H      4.092525   -0.124118    2.302475
H      4.001320    1.611887    1.921873
H      1.436796   -2.671533   -1.731773
H      1.676813   -1.349145   -2.901821
