58

O     -5.316349    2.098581    2.133708
C     -5.557987    1.760201    0.807661
C     -4.511944    0.871864    0.249417
N     -4.423526   -0.361618    0.762058
C     -5.343588   -0.737006    1.822232
C     -6.728290   -0.218390    1.648615
C     -6.855770    0.965554    0.721019
N     -3.675366    1.237437   -0.721172
C     -2.722834    0.404835   -1.221377
C     -1.906146    0.929745   -2.309599
C     -2.605805   -0.832323   -0.730843
C     -1.579327   -1.801787   -1.167652
C     -0.253716   -1.699340   -0.533482
N      0.555634   -0.534130   -0.728058
C      1.110255   -0.483028   -2.050161
C      2.600297   -0.629973   -2.107828
C      3.327274    0.264472   -1.147084
C      2.533388    0.509339    0.117781
C      1.508257   -0.532540    0.342984
C      4.643299   -0.279877   -0.751217
C      5.631330    0.293964    0.028571
C      5.712718    1.495915    0.655280
C      6.837151    1.841570    1.391887
C      7.884086    0.933920    1.477653
F      8.975998    1.311823    2.213963
C      7.820560   -0.293800    0.847034
C      6.694317   -0.614278    0.121827
O      6.322647   -1.642161   -0.567012
N      5.135491   -1.484370   -1.090085
C     -3.505400   -1.192598    0.294811
O     -3.386970   -2.373256    0.751722
H     -4.321118    2.189156    2.222784
H     -5.706763    2.658897    0.164834
H     -5.373952   -1.844466    1.897711
H     -4.895177   -0.339176    2.775642
H     -7.426446   -1.043948    1.328973
H     -7.172646    0.112072    2.632807
H     -7.688090    1.609439    1.051788
H     -6.994648    0.593876   -0.319067
H     -2.564091    1.594138   -2.951934
H     -1.514376    0.177117   -2.999870
H     -1.143151    1.610854   -1.882400
H     -1.983679   -2.824220   -0.880207
H     -1.538951   -1.874955   -2.286176
H     -0.348471   -1.965721    0.553996
H      0.386427   -2.548152   -0.953985
H      0.874081    0.504337   -2.484754
H      0.598402   -1.241908   -2.666139
H      2.975992   -0.438683   -3.126057
H      2.858590   -1.674675   -1.867202
H      3.493720    1.269005   -1.594160
H      2.059682    1.508676    0.118468
H      3.230978    0.511458    1.005330
H      1.927295   -1.536636    0.541670
H      0.940185   -0.252119    1.275817
H      4.873615    2.194476    0.568177
H      6.872339    2.803708    1.879194
H      8.660569   -0.961297    0.945087
