20

C     -2.124989   -0.602834    1.144862
O     -2.104311   -1.607150    0.187091
C     -1.267559    0.579647    0.708816
O     -1.722624    1.114296   -0.473488
C      0.143997    0.076542    0.579237
O      0.222828   -0.935923   -0.417505
C      1.466515   -0.855462   -1.055132
C      1.997205    0.342699   -0.813599
O      3.227731    0.767094   -1.292318
C      1.063340    1.103217    0.027470
O      1.091930    2.342942    0.198221
O      2.037969   -1.875040   -1.814371
H     -1.819375   -0.965853    2.147316
H     -3.167682   -0.227030    1.266444
H     -2.331267   -1.195477   -0.679357
H     -1.300782    1.352187    1.487020
H     -2.281608    1.926530   -0.361309
H      0.516787   -0.339709    1.516465
H      3.701070    1.576877   -0.912928
H      2.650823   -2.577553   -1.442937
