20

C     -3.808562   -0.052788    0.323680
C     -2.366748    0.346580    0.568771
O     -2.092780    1.284664    1.343618
N     -1.336970   -0.350066   -0.085555
C      0.057851   -0.120194    0.021933
C      0.898159   -0.877621   -0.801170
C      2.261548   -0.713114   -0.748902
C      2.865903    0.185332    0.096416
O      4.225368    0.345871    0.144956
C      2.031542    0.919790    0.896252
C      0.653803    0.774484    0.864387
H     -4.409320    0.857213    0.353014
H     -3.901219   -0.523971   -0.682973
H     -4.115981   -0.828156    1.062671
H     -1.654017   -1.136848   -0.729687
H      0.477509   -1.617391   -1.503798
H      2.894726   -1.321927   -1.407102
H      4.800757   -0.208328    0.782342
H      2.458465    1.645344    1.583909
H      0.059965    1.391126    1.531804
