57

C      4.085108   -0.837511    0.127865
C      2.801440   -0.193788   -0.121538
N      1.622614   -0.885087   -0.503916
C      0.352648   -0.238434   -0.747022
C     -0.666030   -1.236491   -1.147087
N     -2.009400   -0.915328   -1.445570
C     -2.438548    0.424085   -1.323977
C     -2.026617    1.464987   -2.130654
C     -2.504240    2.764843   -1.944231
C     -3.406931    3.023034   -0.934475
C     -3.832991    1.984957   -0.111125
C     -3.346479    0.704118   -0.314741
C     -3.788725   -0.357422    0.557889
C     -5.107734   -0.327175    1.124926
C     -5.418395   -0.906630    2.336808
C     -6.693360   -0.894649    2.883144
C     -7.704194   -0.281813    2.198019
C     -7.438813    0.307219    0.988841
C     -6.189695    0.286203    0.471309
O     -3.013431   -1.294846    0.809455
Cl    -4.033277    4.639364   -0.663016
C     -2.914818   -1.947233   -1.871674
O     -0.309927   -2.440782   -1.224841
O      2.714981    1.053319    0.004434
C      5.184780   -0.440197   -0.816040
C      5.511064    1.019770   -0.812076
C      5.946053    1.449413    0.554058
C      7.169463    0.697363    1.023498
N      7.549108    1.194993    2.350069
N      3.893854   -2.301330    0.082391
H      4.417243   -0.612959    1.155207
H      1.699126   -1.919326   -0.609404
H      0.512535    0.522900   -1.567258
H      0.035813    0.356687    0.144083
H     -1.321136    1.255947   -2.918410
H     -2.191275    3.589626   -2.567871
H     -4.534610    2.232223    0.670435
H     -4.632884   -1.405306    2.911629
H     -6.898001   -1.367487    3.849894
H     -8.705963   -0.280459    2.644832
H     -8.239128    0.786249    0.456877
H     -5.942678    0.736275   -0.490950
H     -2.696565   -2.920733   -1.392361
H     -3.991219   -1.639626   -1.735462
H     -2.832495   -2.147366   -2.977184
H      6.098082   -1.004652   -0.534273
H      4.977398   -0.740272   -1.865717
H      6.363366    1.164999   -1.526213
H      4.638621    1.604853   -1.178255
H      6.148244    2.556881    0.523813
H      5.154165    1.331289    1.326996
H      6.941063   -0.386325    1.184863
H      7.998330    0.754734    0.294010
H      8.228950    0.512057    2.762672
H      8.017749    2.114520    2.191479
H      3.114187   -2.521933    0.729039
H      3.653577   -2.579026   -0.883192
