21

C      3.435993   -0.449954   -0.141055
C      1.984375   -0.617476    0.132506
O      1.533105   -1.169959    1.149366
O      0.990329   -0.172841   -0.721745
C     -0.356583   -0.310020   -0.501921
C     -1.113485   -1.376305   -0.897158
C     -2.451978   -1.465548   -0.653994
C     -3.105407   -0.457157    0.016412
C     -2.370022    0.633564    0.429109
C     -0.997026    0.711986    0.172781
C     -0.254787    1.881516    0.624494
O      1.106078    1.987153    0.383748
O     -0.795944    2.831400    1.240286
H      3.968460   -0.083937    0.750709
H      3.530779    0.279989   -0.951801
H      3.875703   -1.430966   -0.403347
H     -0.596490   -2.158563   -1.419415
H     -2.982965   -2.340577   -0.997871
H     -4.166671   -0.554274    0.195410
H     -2.884168    1.442150    0.964548
H      1.650703    2.819821    0.628937
