54

C     -3.990524    0.229302    1.517640
C     -3.442852   -0.472345    0.595850
C     -2.266488   -1.005316    0.079942
N     -0.998804   -0.774975   -0.325713
C      0.242128   -1.178362    0.084427
C      1.166047   -0.484553    0.636947
S      1.023630    1.196543    1.035985
C      0.558795    2.471023    0.015158
O     -0.413613    2.563218   -0.764865
C      1.440263    3.717863    0.032691
C      1.176850    4.811777   -0.654330
C      2.054872    5.946718   -0.536540
C      3.124048    5.821957    0.322082
C      3.406687    4.709027    1.026798
C      2.553145    3.639021    0.877597
C      2.539185   -0.972636    0.842104
C      3.103304   -2.016052   -0.046536
O      4.518641   -2.085739    0.298671
P      5.218457   -3.371450   -0.505782
O      4.737083   -3.595994   -1.883092
O      4.819843   -4.819169    0.382308
O      6.910204   -3.295233   -0.386975
C      0.438268   -2.725091   -0.050358
C     -1.088169   -0.145372   -1.739982
O     -0.054737   -0.133028   -2.388880
C     -4.430939   -0.989170   -0.428082
N     -5.673906   -0.748455   -0.348118
C     -6.148776    0.004002    0.700962
N     -5.355290    0.489124    1.601601
C     -7.670677    0.100333    0.670192
N     -3.752126   -1.623403   -1.571788
H     -3.399524    0.698670    2.321063
H     -2.345954   -2.217894    0.299126
H     -1.748569   -1.052656    1.390484
H      0.348602    4.888469   -1.319325
H      1.837975    6.822923   -1.072922
H      3.834688    6.664170    0.449006
H      4.218366    4.562982    1.688457
H      2.743460    2.717328    1.388089
H      2.502268   -1.389920    1.905349
H      3.278080   -0.147774    0.951973
H      2.802226   -3.021549    0.302008
H      3.061904   -1.819935   -1.099951
H      3.919004   -5.088773    0.117537
H      7.263604   -4.198800   -0.213235
H      0.905035   -2.973294   -0.967465
H      0.740571   -3.135162    0.918699
H     -0.637089   -3.126673   -0.146040
H     -2.002299    0.259634   -2.042897
H     -7.995451    0.416122   -0.332750
H     -7.943636   -1.038775    0.664599
H     -8.056048    0.571689    1.541752
H     -3.895515   -1.164913   -2.515666
H     -3.176247   -2.489433   -1.459864
