38

C     -2.842612   -0.398019    2.863539
C     -4.061459   -0.368354    3.509012
C     -5.208192   -0.112898    2.790192
C     -5.095012    0.106484    1.435686
C     -3.888615    0.081698    0.770140
C     -2.759302   -0.173879    1.501361
C     -1.460984   -0.204264    0.806929
O     -0.278836   -0.454510    1.471413
C      0.939527   -0.477473    0.787473
C      1.443150   -1.628508    0.235504
C      2.644310   -1.636647   -0.435252
C      3.382881   -0.444708   -0.565341
N      4.595335   -0.521109   -1.266289
C      5.571586    0.479794   -1.445638
C      6.823596    0.244203   -2.229658
O      5.387457    1.601676   -0.933851
C      2.864490    0.686792   -0.009961
C      1.635258    0.703601    0.678588
O     -1.396235    0.000917   -0.431944
O     -3.798485    0.305371   -0.593899
C     -3.619459    1.581972   -1.070894
C     -3.518729    1.849200   -2.548987
O     -3.539854    2.532196   -0.256935
H     -1.942298   -0.598883    3.429637
H     -4.059226   -0.551670    4.575854
H     -6.166437   -0.085707    3.275108
H     -6.006677    0.303934    0.897086
H      0.879189   -2.545940    0.333111
H      3.027781   -2.555932   -0.865165
H      4.847391   -1.451636   -1.746121
H      7.250414    1.160659   -2.637729
H      6.664994   -0.466972   -3.054075
H      7.557527   -0.198441   -1.526677
H      3.399485    1.612225   -0.094502
H      1.300592    1.647468    1.087602
H     -3.404923    0.905773   -3.098110
H     -2.695327    2.538525   -2.771792
H     -4.472302    2.331656   -2.865414
