61

C      2.018109    4.328136    0.473039
C      0.817612    3.623812    0.400771
C      0.790385    2.274058    0.938547
S     -0.665926    1.313570    0.599728
C     -0.262823   -0.012467   -0.558613
C      1.060871   -0.669127   -0.529273
C      1.284943   -1.537821    0.684694
O      2.588164   -2.119778    0.663178
C      3.753087   -1.354878    0.689122
C      5.062583   -1.975746    0.669076
C      6.153925   -1.105707    0.665214
C      7.447863   -1.534691    0.701214
C      7.663812   -2.922790    0.743135
C      6.630113   -3.802195    0.747809
C      5.299520   -3.324102    0.709296
O      3.612407   -0.127062    0.735744
C     -1.199449   -0.291653   -1.477253
N     -2.465317    0.479035   -1.433775
C     -3.059744    0.545482   -0.097900
C     -4.134111   -0.459470    0.099012
C     -4.020763   -1.487086    0.961098
N     -5.126460   -2.196519    1.329933
C     -6.349733   -1.911408    0.862929
N     -6.470155   -0.864728   -0.026050
C     -5.370987   -0.156586   -0.395656
C     -7.592237   -2.646120    1.248738
N     -2.720697   -1.940367    1.422473
C     -2.988756    1.007197   -2.577656
O     -3.970763    1.638310   -2.904778
C     -1.012628   -1.276357   -2.510855
O      1.738274    1.850325    1.586877
C     -0.273547    4.183775   -0.172075
C     -0.187072    5.453788   -0.692618
C      0.976016    6.194471   -0.651566
C      2.084356    5.586849   -0.043991
H      2.882075    3.853836    0.938353
H      1.802069    0.185488   -0.435007
H      1.342789   -1.172856   -1.474706
H      1.173834   -0.923816    1.604599
H      0.575518   -2.410994    0.685333
H      5.985980   -0.014045    0.628722
H      8.305248   -0.895091    0.697997
H      8.678798   -3.314979    0.785940
H      6.762522   -4.861310    0.777784
H      4.477015   -4.028275    0.716224
H     -2.367172    0.327382    0.737726
H     -3.367609    1.595350    0.058626
H     -5.605572    0.667397   -1.090847
H     -7.480303   -3.704202    1.042661
H     -8.401698   -2.208575    0.638770
H     -7.776805   -2.512849    2.354562
H     -2.123378   -1.408694    2.015583
H     -2.492625   -2.921091    1.041784
H     -2.314523    0.795930   -3.511393
H     -1.197678   -2.318270   -2.201142
H     -1.697331   -1.123144   -3.389371
H     -0.001813   -1.248910   -2.990493
H     -1.210831    3.622083   -0.225105
H     -1.069936    5.915337   -1.168783
H      1.024731    7.167337   -1.069419
H      2.985824    6.174808   -0.027964
