43

C     -0.335916   -1.966321    1.068176
C     -0.431047   -3.311737    0.776919
C     -1.311315   -3.764184   -0.223252
C     -2.097253   -2.864446   -0.930336
Cl    -3.212129   -3.376284   -2.186116
C     -2.018666   -1.534159   -0.659847
C     -1.130276   -1.145087    0.333567
C     -0.875199    0.247308    0.726408
C     -1.891965    1.331194    0.823067
C     -1.544352    2.157759    1.846944
C     -2.391106    3.231066    2.040278
C     -3.510782    3.418481    1.224796
C     -3.787265    2.513203    0.195503
C     -2.976024    1.446732   -0.024096
C     -3.360067    0.566736   -1.153758
C     -2.955162   -0.683024   -1.416487
C      0.382528    0.560351    0.908452
C      1.467260   -0.408549    0.716182
C      2.319375    0.502395   -0.281678
N      3.508012   -0.193188   -0.660541
O      3.461289   -1.464087   -0.140082
C      4.706041    0.411038   -0.113264
C      3.625416   -0.353944   -2.091933
H      0.253675   -1.613382    1.865716
H      0.158976   -4.038619    1.301783
H     -1.402446   -4.808337   -0.469018
H     -0.680161    1.942521    2.436936
H     -2.215493    3.952924    2.820976
H     -4.194695    4.242298    1.343891
H     -4.656558    2.635753   -0.457264
H     -4.062217    1.037577   -1.827230
H     -3.364127   -1.135730   -2.289949
H      0.587252    1.612155    1.205387
H      2.241643   -0.523027    1.445821
H      1.326575   -1.173772   -0.064425
H      1.683158    0.784617   -1.117943
H      2.594590    1.385444    0.321571
H      4.951695   -0.037273    0.872340
H      4.653091    1.506803   -0.046076
H      5.544101    0.143321   -0.798989
H      3.117528    0.487752   -2.592417
H      3.118115   -1.295314   -2.394606
H      4.703902   -0.426966   -2.335402
