45

Cl     0.000000    0.000000    0.000000
C     -1.997989    2.637822    1.007527
C     -1.440392    3.265031    2.090445
C     -0.086407    3.065061    2.369443
C      0.693082    2.252947    1.579118
C      0.135446    1.621670    0.490445
C     -1.218091    1.825764    0.217444
N     -1.473162    1.095211   -0.886433
C     -0.355908    0.463515   -1.296111
C      0.686755    0.772875   -0.447250
C      2.090714    0.298762   -0.517124
C      2.373111   -0.770158    0.490927
C      3.811989   -1.175204    0.326205
C      4.156470   -2.196641   -0.550763
C      5.462793   -2.585351   -0.717289
N      6.410861   -1.947171   -0.003595
C      6.145714   -0.952772    0.860107
C      4.837823   -0.570146    1.020736
C     -2.741257    0.965692   -1.569326
C     -3.518393   -0.182452   -1.033749
C     -3.369318   -1.459497   -1.533769
C     -4.069949   -2.539076   -1.065319
C     -4.963859   -2.320296   -0.043380
C     -5.143480   -1.056046    0.486236
C     -4.420753    0.006623   -0.010744
H     -3.035348    2.792820    0.792514
H     -1.987062    3.917108    2.756398
H      0.375627    3.557767    3.229971
H      1.753525    2.075693    1.769192
H     -0.257290   -0.191656   -2.152552
H      2.337191   -0.092767   -1.522321
H      2.756373    1.165832   -0.244742
H      1.718519   -1.666839    0.293714
H      2.211480   -0.462356    1.537653
H      3.356875   -2.670727   -1.094752
H      5.744705   -3.393287   -1.409771
H      6.916010   -0.445084    1.430106
H      4.568937    0.231083    1.709088
H     -2.546720    0.864920   -2.654288
H     -3.330693    1.887444   -1.376066
H     -2.651223   -1.606177   -2.347255
H     -3.956035   -3.530830   -1.451896
H     -5.562204   -3.111273    0.391892
H     -5.837420   -0.847388    1.289139
H     -4.581049    1.009557    0.427185
