16

C      1.972085    0.325134   -0.515280
C      0.530373    0.162984   -0.220975
C     -0.054861   -1.083420   -0.335064
C     -1.396791   -1.265770   -0.067345
C     -2.208795   -0.220332    0.323304
C     -1.631578    1.025500    0.439100
C     -0.283537    1.207435    0.169913
O      2.717914    0.130089    0.640381
H      2.299015   -0.403885   -1.269412
H      2.193800    1.352692   -0.885200
H      0.567549   -1.926855   -0.642824
H     -1.880340   -2.236205   -0.149862
H     -3.260734   -0.339643    0.537848
H     -2.226586    1.868232    0.740533
H      0.196237    2.181577    0.254029
H      2.466250   -0.777533    0.980851
