55

C     -5.641795    2.019625   -1.128791
C     -6.939720    2.167777   -1.592205
C     -7.806056    1.090957   -1.582422
C     -7.331506   -0.110961   -1.101433
C     -6.032650   -0.267185   -0.635485
C     -5.187696    0.827708   -0.657165
C     -3.956522    0.408514   -0.141794
C     -4.087068   -0.920004    0.176412
N     -5.329203   -1.295416   -0.126889
C     -2.909762   -1.596813    0.746472
N     -2.307689   -0.632114    1.649699
C     -1.444291   -1.243328    2.624979
C      0.000729   -0.854646    2.445921
N      0.396961   -0.633259    1.129893
C     -0.421389    0.127813    0.278520
C     -1.724203    0.486082    0.984637
C     -2.692115    1.150370    0.068582
C      1.773129   -0.718775    0.814522
C      2.078069   -0.462132   -0.633794
C      3.529077   -0.550771   -0.991095
C      4.397430    0.403894   -0.310368
C      5.830782    0.350974   -0.569655
C      6.708976    1.231563    0.046695
C      8.056339    1.205820   -0.177115
C      8.599019    0.287610   -1.038412
C      7.759635   -0.603877   -1.669832
C      6.404693   -0.557979   -1.427761
F      9.954330    0.255592   -1.268849
O      3.958217    1.262976    0.484735
H     -4.951438    2.858633   -1.131439
H     -7.294106    3.125899   -1.967800
H     -8.826343    1.216841   -1.949279
H     -7.999148   -0.978208   -1.083772
H     -5.779121   -2.250950   -0.014396
H     -3.145338   -2.515071    1.307938
H     -2.197909   -1.792448   -0.105733
H     -1.582329   -2.345718    2.679113
H     -1.760959   -0.848278    3.632306
H      0.264574    0.019893    3.081557
H      0.606808   -1.707011    2.873537
H      0.083093    1.121879    0.093411
H     -0.647861   -0.344771   -0.698638
H     -1.411464    1.205068    1.799611
H     -2.229305    1.385199   -0.929182
H     -2.963988    2.166010    0.480954
H      2.153545   -1.726202    1.118213
H      2.313906    0.005061    1.436482
H      1.724748    0.539328   -0.965326
H      1.558820   -1.261297   -1.241252
H      3.930151   -1.581541   -0.761989
H      3.655635   -0.407443   -2.087269
H      6.280439    1.961194    0.730708
H      8.705832    1.910573    0.324021
H      8.163287   -1.328305   -2.345761
H      5.712746   -1.258350   -1.919013
