52

C     -1.235881   -0.438292    0.364440
C     -0.711845   -0.653133   -1.014259
C      0.567676    0.210453   -1.084947
N      1.559003   -0.581592   -0.382529
C      2.855822   -0.010608   -0.638037
C      4.002615   -0.856941   -0.129328
C      5.337794   -0.082133   -0.178507
C      4.718488   -0.530558    1.133322
O      4.086313   -2.155429   -0.676135
C      1.219628   -0.717562    0.991390
C     -0.131426   -0.281614    1.402142
C      0.371811    1.587448   -0.624129
C     -1.023560    1.897680   -0.185834
C     -1.881510    0.907816    0.305902
C     -3.153772    1.180681    0.695874
C     -3.624387    2.468927    0.608758
C     -2.796427    3.463896    0.126579
C     -1.499748    3.185953   -0.271076
O     -4.941201    2.736872    1.013430
C     -1.564036   -0.195599   -2.146665
C     -0.311199   -2.077010   -1.300970
C     -2.081553   -1.529409    0.903972
C     -3.309562   -1.934099    0.243372
H      0.869237    0.167173   -2.156201
H      2.937323    1.021555   -0.177140
H      3.034442    0.136053   -1.722457
H      5.319908    0.993274   -0.379163
H      6.224410   -0.645734   -0.550249
H      4.281981    0.273097    1.757887
H      5.266479   -1.353545    1.642940
H      5.038836   -2.357284   -0.815815
H      1.462265   -1.749903    1.396721
H      1.961820   -0.076962    1.558104
H     -0.058227    0.771373    1.790385
H     -0.360021   -0.843568    2.360909
H      1.138734    1.926681    0.098288
H      0.527030    2.286999   -1.505519
H     -3.769464    0.380859    1.065894
H     -3.159674    4.463472    0.056582
H     -0.867811    3.997207   -0.648036
H     -5.721272    2.684163    0.377697
H     -2.144785   -1.030634   -2.616772
H     -0.873826    0.124914   -2.988918
H     -2.202870    0.661873   -1.949899
H     -0.001182   -2.663387   -0.436211
H      0.525224   -2.074136   -2.052183
H     -1.167573   -2.611077   -1.780152
H     -2.319147   -1.229409    1.972977
H     -1.398717   -2.395165    1.038441
H     -3.585198   -1.452437   -0.718852
H     -3.234022   -3.033425   -0.042526
H     -4.176944   -1.967775    0.971303
