24

C      2.170565   -1.315809   -0.368431
C      3.010821   -0.271041   -0.144411
C      2.451426    0.949805    0.154433
C      1.091146    1.151915    0.234395
C      0.213927    0.081348    0.005230
C      0.781860   -1.139593   -0.293841
N     -0.060452   -2.270224   -0.537818
C     -1.469301   -2.103981   -0.464999
O     -2.276873   -3.049716   -0.666590
O     -1.955768   -0.860090   -0.162515
C     -1.240070    0.307597    0.093071
C     -1.650533    0.779155    1.490744
C     -1.711015    1.388028   -0.858903
Br     3.636442    2.409917    0.467237
H      2.604979   -2.283673   -0.605116
H      4.098000   -0.414788   -0.204176
H      0.684829    2.136941    0.474426
H      0.355376   -3.196111   -0.764276
H     -2.719015    0.520272    1.612848
H     -1.554601    1.882033    1.573310
H     -0.978404    0.308992    2.205580
H     -1.042776    1.442792   -1.753192
H     -1.682465    2.373049   -0.329867
H     -2.758098    1.173182   -1.157141
