22

C     -1.721698    0.617427   -1.498440
C     -1.784739   -0.190359   -0.221185
C     -0.827689   -1.343453   -0.317054
C      0.570909   -0.993527   -0.515884
N      1.326262   -0.251158    0.422644
C      2.683060    0.040088    0.131050
N      3.487306    0.779487    1.033319
O      3.167995   -0.369572   -0.947714
O      1.140024   -1.364288   -1.567572
Br    -0.971775   -2.377767    1.338626
C     -1.646227    0.661259    0.988873
H     -1.554317    1.689150   -1.246498
H     -0.828511    0.316938   -2.103182
H     -2.619102    0.490380   -2.137539
H     -2.832845   -0.618751   -0.188889
H     -1.148681   -2.046279   -1.110493
H      0.900430    0.091626    1.337871
H      3.386519    1.785075    1.239561
H      4.255523    0.273862    1.542795
H     -1.414725    0.115477    1.908072
H     -0.944498    1.504628    0.776520
H     -2.623221    1.189755    1.208590
