32

C      0.029383    1.554891    1.386244
C      1.014093    2.432840    1.737314
Br     0.859870    4.051893    2.767016
S      2.424524    1.740652    1.034793
C      1.715436    0.372902    0.330287
C      0.387326    0.475050    0.644345
C     -0.604513   -0.530748    0.182008
N     -0.388831   -1.809615    0.071664
C      0.810848   -2.564547    0.342167
C      2.006110   -2.010114   -0.347459
N      2.912999   -2.642140   -1.059771
N      3.843445   -1.749496   -1.483392
C      3.517651   -0.516122   -1.027075
N      2.405186   -0.701688   -0.346042
C      4.195154    0.795320   -1.186995
C     -1.958053   -0.131751   -0.127658
C     -2.458108    1.105593   -0.334993
C     -3.823987    1.378102   -0.403737
C     -4.736635    0.358200   -0.264879
C     -4.266139   -0.911710   -0.060626
C     -2.922890   -1.165281    0.008199
Cl    -1.365317    2.417984   -0.793423
H     -1.011671    1.746856    1.773037
H      0.658079   -3.629948    0.106677
H      1.009554   -2.495396    1.430933
H      4.569405    1.182758   -0.206130
H      3.554708    1.543364   -1.711348
H      5.106770    0.650586   -1.796070
H     -4.150826    2.400829   -0.567397
H     -5.788839    0.552611   -0.315274
H     -4.963388   -1.744206    0.050691
H     -2.581345   -2.157669    0.166894
