32

C      0.375471   -1.007517   -0.635170
C     -0.369224   -0.919872    0.516458
C      0.066039   -0.002123    1.448194
C      1.171289    0.767884    1.230057
C      1.928477    0.675704    0.054455
C      1.509048   -0.233291   -0.884904
N      3.041057    1.513482   -0.085122
C      4.015166    1.447892   -1.077908
C      5.143811    2.457239   -1.054314
O      3.979179    0.582017   -1.980370
O     -1.499911   -1.709921    0.736170
C     -2.788582   -1.232311    0.317027
C     -2.701554   -1.028211   -1.173645
C     -3.866081   -2.220978    0.678034
C     -3.021157    0.128677    0.966343
H      0.085320   -1.704934   -1.398103
H     -0.527592    0.070009    2.370522
H      1.462191    1.476957    2.011961
H      2.036198   -0.363349   -1.828366
H      3.158396    2.289612    0.643944
H      5.151001    3.061809   -1.966733
H      5.069114    3.106028   -0.181576
H      6.073368    1.827370   -0.958003
H     -1.943716   -0.227710   -1.361278
H     -3.661467   -0.668965   -1.602047
H     -2.341615   -1.954965   -1.676549
H     -4.197106   -2.041890    1.733654
H     -4.718543   -2.200276   -0.032794
H     -3.454843   -3.258178    0.666319
H     -3.115942   -0.019696    2.053480
H     -3.908174    0.631594    0.529314
H     -2.149618    0.757915    0.684666
