53

C     -1.598066    0.044447    0.688431
C     -0.463317   -0.865148    0.296730
C      0.727563   -0.031325   -0.099722
N      1.262149    0.513593    1.101114
C      2.495293    0.010740    1.550823
C      3.607586    0.427484    0.641161
C      4.986595   -0.074282    1.089068
C      5.325814   -0.092648   -0.410068
C      3.827317   -0.379456   -0.609704
C      0.311478    0.832468    2.128644
C     -1.071160    1.067411    1.642317
C      0.404862    1.100318   -1.032584
C     -1.013312    1.256069   -1.360256
C     -2.007752    0.757778   -0.544786
C     -3.304338    0.952794   -0.924581
C     -3.632709    1.631734   -2.096181
O     -4.943329    1.827187   -2.477696
C     -2.628480    2.121607   -2.897344
C     -1.320652    1.939378   -2.539012
C     -0.985860   -1.730935   -0.804127
C     -1.974868   -2.669827   -0.202957
C     -2.985485   -2.067522    0.697615
C     -2.663344   -0.776152    1.328240
O     -0.050326   -1.690965    1.335158
H      1.431084   -0.747737   -0.592521
H      2.527073   -1.122312    1.561337
H      2.681357    0.309625    2.611413
H      3.680581    1.504315    0.398478
H      5.497186    0.700315    1.670182
H      4.985375   -1.055255    1.562603
H      5.988067   -0.935509   -0.665568
H      5.639109    0.891036   -0.774144
H      3.475983    0.049736   -1.551838
H      3.686585   -1.478246   -0.528992
H      0.665586    1.798480    2.590389
H      0.367120    0.094771    2.970315
H     -1.129055    2.114079    1.236699
H     -1.739564    1.091357    2.552748
H      1.026582    0.983151   -1.962014
H      0.750455    2.091882   -0.612438
H     -4.133749    0.593796   -0.342034
H     -5.131949    2.323936   -3.333221
H     -2.859399    2.662153   -3.830354
H     -0.522989    2.324426   -3.168192
H     -0.146406   -2.350401   -1.211616
H     -1.380001   -1.172909   -1.663869
H     -1.378529   -3.476278    0.320224
H     -2.459857   -3.224123   -1.059549
H     -3.201798   -2.824989    1.511556
H     -3.963007   -2.021807    0.142373
H     -2.324313   -0.949168    2.396119
H     -3.568221   -0.147525    1.449338
H     -0.768963   -2.131546    1.822294
