70

C     -2.504607    0.697209   -0.270397
C     -3.320556    0.655185    0.967929
C     -2.781124    1.176440    2.155252
C     -3.599932    1.104762    3.261718
C     -4.874726    0.562751    3.244242
C     -5.391147    0.052076    2.058622
C     -4.577342    0.124712    0.964859
C     -5.208538   -0.408373   -0.130390
C     -6.443721   -0.813972    0.327863
N     -6.520449   -0.519560    1.658565
C     -4.471703   -0.415019   -1.405612
C     -3.004510   -0.364284   -1.200196
N     -2.204648   -0.314354   -2.374423
C     -0.954617   -0.976729   -1.982227
C     -0.234237   -0.304292   -0.867789
C     -1.075325    0.480906    0.098453
C      0.434827   -1.373560   -0.076416
N      1.550079   -1.243869    0.752681
C      2.014293   -2.362987    1.485882
N      3.118831   -2.278446    2.333034
C      3.627050   -3.410926    3.107038
C      4.827875   -3.031644    3.934556
O      1.417641   -3.474458    1.375963
C      2.228888    0.025099    0.888258
C      3.361405    0.078921   -0.141574
C      4.108515    1.372161   -0.056301
N      5.163944    1.385806   -1.050590
C      5.920374    2.619133   -0.993322
C      4.645803    1.235490   -2.388844
O     -0.092738   -2.539259   -0.178677
C     -1.821121    0.960139   -2.870860
C     -2.870267    1.819862   -3.418606
C     -2.828131    2.215775   -4.674087
H     -2.696676    1.729581   -0.692422
H     -1.790091    1.600024    2.162322
H     -3.218921    1.498411    4.205810
H     -5.488640    0.518643    4.113145
H     -7.179883   -1.278965   -0.305323
H     -7.341082   -0.718652    2.249904
H     -4.684762   -1.437608   -1.854691
H     -4.912756    0.287417   -2.105596
H     -2.756999   -1.342752   -0.659715
H     -0.343141   -0.987172   -2.913923
H     -1.160173   -2.050517   -1.743520
H      0.564879    0.318968   -1.326047
H     -0.987504    0.067476    1.139589
H     -0.632198    1.500798    0.161568
H      3.644256   -1.393546    2.453971
H      2.807613   -3.677521    3.813318
H      3.807648   -4.292747    2.470570
H      4.469313   -2.296507    4.701766
H      5.193581   -3.954874    4.430189
H      5.610677   -2.582918    3.280370
H      1.541700    0.905957    0.710443
H      2.646013    0.218837    1.889493
H      4.037818   -0.795077   -0.012598
H      2.897857   -0.002175   -1.138526
H      4.524910    1.596106    0.928049
H      3.413039    2.188444   -0.320332
H      6.992278    2.338297   -1.183391
H      5.827750    3.054551    0.005823
H      5.573486    3.376006   -1.727729
H      4.807294    0.200192   -2.770675
H      3.574459    1.521698   -2.453370
H      5.194705    1.905043   -3.060658
H     -1.252897    1.589887   -2.127694
H     -1.019055    0.749590   -3.646755
H     -3.700963    2.162969   -2.818154
H     -3.590116    2.845536   -5.088600
H     -2.013500    1.901905   -5.301210
