49

C     -2.612811    2.041863    0.790369
N     -3.909527    1.815828    1.054355
C     -4.268337    0.666119    0.451938
C     -3.134841    0.208258   -0.185276
N     -2.104558    1.055543    0.019706
C     -0.760261    0.937384   -0.479765
C      0.130349    0.167336    0.455298
N      1.470170    0.063826   -0.053956
C      2.204333    1.287904   -0.090076
C      3.468302    1.094097   -0.908151
C      4.430335    0.166627   -0.307747
C      5.517149    0.643871    0.400156
C      6.453921   -0.214446    0.982796
C      6.281710   -1.568316    0.842958
C      5.197831   -2.040482    0.137309
C      4.257086   -1.188025   -0.447930
O      3.180682    0.714282   -2.212386
C      2.614587    1.615828    1.334647
C     -3.275174   -0.985928   -0.880742
N     -4.425900   -1.663909   -0.941498
C     -4.532468   -2.903582   -1.674537
C     -5.504395   -1.192584   -0.313000
N     -5.414485   -0.033311    0.376556
C     -6.564873    0.513842    1.075122
O     -6.601094   -1.808597   -0.351808
O     -2.280357   -1.451406   -1.479140
H     -2.036014    2.881568    1.131625
H     -0.354492    1.971128   -0.553525
H     -0.697947    0.515997   -1.504455
H      0.113114    0.592352    1.464656
H     -0.238333   -0.897572    0.557367
H      1.997620   -0.573976    0.615732
H      1.666962    2.129983   -0.550272
H      3.937159    2.115819   -0.983918
H      5.713497    1.704021    0.548004
H      7.296928    0.148030    1.530738
H      6.960792   -2.296988    1.262285
H      5.071899   -3.111333    0.033369
H      3.433684   -1.647056   -0.985483
H      3.564083    1.323368   -2.889618
H      1.801531    1.558081    2.060132
H      3.339384    0.800895    1.626722
H      3.085340    2.603875    1.424463
H     -3.646067   -3.166814   -2.254502
H     -4.774991   -3.695833   -0.907304
H     -5.459800   -2.873808   -2.317691
H     -6.876541    1.482562    0.624183
H     -6.343949    0.724514    2.148716
H     -7.371239   -0.230832    1.039086
