44

C     -2.496225   -0.846137   -1.738594
C     -2.972860   -0.632735   -3.019080
Cl    -4.144497   -1.788363   -3.642838
C     -2.548438    0.456541   -3.786661
C     -1.629653    1.354441   -3.276543
C     -1.157344    1.138392   -2.002130
C     -1.598090    0.045909   -1.245773
C     -1.207606   -0.232006    0.120786
N      0.004555   -0.080228    0.610768
C      1.203797    0.400637   -0.093764
O      2.290607    0.388530    0.767191
C      3.394836   -0.415888    0.525280
N      4.524518   -0.460279    1.375338
C      4.622932    0.338385    2.580749
C      5.621409   -1.335183    1.028103
O      3.386996   -1.139312   -0.500863
C      0.885253    1.771359   -0.597610
N     -0.112144    2.053978   -1.598967
C     -0.111499    3.292148   -2.294003
O      1.480866    2.771698   -0.168778
C     -2.232671   -0.734461    1.026443
C     -3.559771   -0.833312    0.820337
C     -4.414242   -1.415605    1.714230
C     -3.912846   -1.936535    2.905039
C     -2.553285   -1.858698    3.170503
C     -1.757660   -1.271723    2.245482
H     -2.744577   -1.704594   -1.125553
H     -2.964889    0.557843   -4.773492
H     -1.268339    2.201840   -3.808094
H      1.324878   -0.282615   -0.959069
H      5.376781   -0.099026    3.264943
H      5.009326    1.374109    2.350789
H      3.680681    0.417295    3.133846
H      6.502425   -1.170557    1.678060
H      5.281240   -2.407929    1.107217
H      5.954281   -1.185620   -0.028327
H      0.452800    3.245519   -3.271428
H     -1.127035    3.719320   -2.453274
H      0.434932    4.043822   -1.692920
H     -3.998080   -0.369687   -0.065227
H     -5.473091   -1.497841    1.550570
H     -4.585508   -2.398544    3.615792
H     -2.178258   -2.261856    4.091059
H     -0.684505   -1.213030    2.460461
