22

C     -0.741233   -1.315484   -0.292912
C     -0.618825   -0.019159    0.172939
C      0.675213    0.482374    0.709401
O      1.760741    0.115778   -0.113435
C      2.556398    1.090032   -0.650282
N      3.671289    0.851133   -1.488062
O      2.286921    2.305044   -0.386074
C      0.814669   -0.087868    2.056775
C      0.923685   -0.579230    3.166928
C     -1.742705    0.779154    0.117160
C     -2.957526    0.338713   -0.376345
C     -3.050870   -0.955816   -0.833296
C     -1.948510   -1.777664   -0.791487
H      0.088035   -2.006702   -0.285715
H      0.607860    1.575674    0.817514
H      3.699674    1.040571   -2.510590
H      4.532072    0.455706   -1.054514
H      1.032161   -0.994099    4.133783
H     -1.669819    1.780140    0.470696
H     -3.835979    0.988869   -0.411244
H     -4.003479   -1.281605   -1.213771
H     -2.079772   -2.785561   -1.163997
