53

O     -0.001107    0.363137   -0.000000
O     -0.001107    0.363137   -0.000000
O     -0.001107    0.363137   -0.000000
C     -3.308793    1.550888    2.043834
C     -3.690160    0.540194    1.006184
C     -4.996188   -0.098222    1.373393
S     -2.442294   -0.768390    0.823245
C     -2.163023   -0.522495   -0.976619
C     -0.736921   -0.253368   -1.339885
N      0.219247   -0.369636   -0.292238
C      1.400839   -1.148114   -0.410897
O      1.547144   -1.736063   -1.520010
C      2.408105   -1.297696    0.632439
N      2.026434   -0.726037    1.911542
C      3.755665   -0.848300    0.237748
C      3.967035   -0.329733   -1.014868
C      5.257974    0.085475   -1.377134
C      6.322041   -0.013439   -0.506573
O      7.610868    0.384445   -0.824136
C      6.064123   -0.541790    0.746213
C      4.821312   -0.955847    1.132537
C     -1.210492    1.081912   -1.689759
O     -0.648013    2.016635   -2.359605
N     -2.440597    0.884601   -1.020106
C     -3.704870    1.121689   -0.392478
C     -4.785349    0.577809   -1.236281
O     -6.125534    0.601214   -0.869457
O     -4.500978    0.065515   -2.341440
H     -0.824985   -0.181947   -0.000000
H      0.826092   -0.181190    0.000000
H     -0.824985   -0.181947   -0.000000
H      0.826092   -0.181190    0.000000
H     -0.824985   -0.181947   -0.000000
H      0.826092   -0.181190    0.000000
H     -4.200162    2.183001    2.236042
H     -2.510658    2.213677    1.649201
H     -3.034853    1.061149    2.980162
H     -5.822477    0.621682    1.472726
H     -4.864867   -0.575021    2.365525
H     -5.222935   -0.923180    0.662859
H     -2.722026   -1.200196   -1.610301
H     -0.494690   -0.823466   -2.277907
H      0.061848    0.129874    0.604802
H      2.507662   -2.406372    0.834225
H      2.772649   -0.195873    2.372350
H      1.635190   -1.434975    2.570944
H      3.191824   -0.203709   -1.772817
H      5.428752    0.497202   -2.370665
H      7.879141    1.357944   -0.619541
H      6.893979   -0.620901    1.430720
H      4.588278   -1.372434    2.103350
H     -3.876966    2.232311   -0.352140
H     -6.857262    0.158041   -1.378190
