52

C     -6.153356   -0.449525    0.559953
C     -6.140398   -0.046701   -0.761584
C     -5.076050   -0.489584   -1.664025
C     -3.989597   -1.387766   -1.201561
C     -2.768867   -0.550365   -0.800081
C     -1.714311   -1.510951   -0.346965
N     -0.501626   -0.888175    0.066161
C      0.476288   -1.814220    0.482759
C      1.820129   -1.620634   -0.200096
C      2.229379   -0.187682    0.163383
O      3.548081   -0.013677   -0.255008
C      4.574735    0.261950    0.633566
N      5.923642    0.442674    0.226632
C      7.002923    0.731597    1.152243
C      7.604968    2.089615    0.801030
C      8.080854   -0.317493    1.001270
O      4.293132    0.357076    1.871328
C      1.283930    0.704147   -0.584795
C     -0.123383    0.270424   -0.623961
O     -5.116471   -0.077828   -2.853649
C     -7.135802    0.778243   -1.244242
C     -8.130020    1.185655   -0.389733
C     -8.181417    0.809122    0.930869
C     -7.182127   -0.008054    1.380539
F     -9.170993    1.228169    1.736417
H     -5.366632   -1.094576    0.923032
H     -3.641189   -1.935317   -2.128947
H     -4.281639   -2.114294   -0.443498
H     -2.464260   -0.016753   -1.742228
H     -3.030197    0.175609   -0.021535
H     -2.134921   -2.042678    0.552358
H     -1.580874   -2.290956   -1.120508
H      0.684603   -1.732829    1.578618
H      0.158158   -2.857865    0.232797
H      2.529192   -2.366264    0.148154
H      1.641123   -1.648742   -1.294423
H      2.184495   -0.069991    1.260411
H      6.094379    0.351791   -0.816422
H      6.589914    0.782377    2.160059
H      8.490797    1.963591    0.132956
H      7.982276    2.604921    1.709421
H      6.873587    2.766102    0.328068
H      8.331469   -0.745039    1.981437
H      7.778105   -1.073390    0.247497
H      9.025212    0.142195    0.604686
H      1.731910    0.859413   -1.601288
H      1.352244    1.716562   -0.099971
H     -0.803099    1.114424   -0.301235
H     -0.405931    0.134386   -1.711179
H     -7.143088    1.107609   -2.286354
H     -8.897314    1.830988   -0.792386
H     -7.151966   -0.352490    2.420028
