22

C     -1.834786   -0.398380   -0.576351
C     -0.661813   -0.971506    0.134313
C      0.627634   -0.316592    0.170075
C      0.857028    0.885224   -0.463759
C      2.108128    1.461885   -0.392029
C      3.143630    0.872290    0.297014
C      2.898620   -0.318929    0.919377
C      1.660032   -0.906385    0.858176
O     -0.789357   -2.078759    0.735451
C     -2.167659    0.920601    0.056875
N     -2.931806   -1.332970   -0.444639
H     -1.521789   -0.270331   -1.635084
H      0.067542    1.367867   -1.010329
H      2.235373    2.417704   -0.914230
H      4.100029    1.356067    0.326496
H      3.671395   -0.834371    1.478107
H      1.503188   -1.861908    1.370472
H     -3.150854    0.816021    0.570359
H     -2.273692    1.746095   -0.674585
H     -1.438178    1.146686    0.837224
H     -3.531091   -1.371456   -1.306723
H     -2.571574   -2.328855   -0.336209
