41

C      4.787960    0.918264   -0.088673
C      5.899193    0.839023    0.734190
C      5.904296   -0.097549    1.764730
C      4.827374   -0.935658    1.970669
C      3.752846   -0.806346    1.117201
C      3.696961    0.100942    0.085145
C      2.544247    0.232633   -0.822714
C      1.241755    0.409112   -0.079396
N      0.270359    0.027615   -1.101804
C     -1.111479    0.441281   -1.150632
C     -2.014021   -0.483115   -0.428930
N     -3.407701   -0.301774   -0.329425
C     -4.233102   -1.236249    0.386778
C     -5.524785   -0.634895    0.811007
N     -5.741164    0.766067    0.696886
C     -4.683881    1.637143    0.157961
C     -4.033569    0.833549   -0.949614
O     -6.420640   -1.386765    1.271708
O     -1.444765   -1.489471    0.118575
C      0.880033   -0.819115   -2.056367
C      2.270344   -1.052584   -1.591495
O      0.331837   -1.272830   -3.089031
Cl     7.267798   -0.256962    2.842611
H      4.787005    1.657039   -0.899542
H      6.769701    1.468115    0.620776
H      4.813609   -1.675102    2.772518
H      2.891355   -1.451531    1.254232
H      2.728388    1.022489   -1.566795
H      1.087800    1.427040    0.291298
H      1.194222   -0.375742    0.700683
H     -1.154080    1.464804   -0.699285
H     -1.383261    0.570384   -2.212554
H     -3.743240   -1.600691    1.325444
H     -4.401955   -2.165677   -0.220173
H     -6.655852    1.136503    1.003399
H     -3.943750    1.740160    0.988996
H     -5.082517    2.592114   -0.182002
H     -3.338039    1.442330   -1.554622
H     -4.833904    0.433056   -1.638016
H      2.980610   -1.223975   -2.403246
H      2.224016   -1.893631   -0.868737
