107

O     -4.458397    2.329917   -2.265052
C     -3.321682    1.884983   -1.537227
O     -3.156563    2.763375   -0.516153
C     -2.981603    2.252743    0.724212
C     -2.494204    3.186805    1.767724
O     -3.264277    4.270928    2.050487
C     -3.496622    5.162039    1.033683
C     -2.201318    5.752908    0.489936
O     -2.413518    6.652808   -0.531889
C     -3.144266    7.768091   -0.214543
O     -4.275868    7.846413   -1.033279
C     -2.346724    9.039120   -0.423683
Cl    -0.891074    8.995149    0.618701
Cl    -1.849984    9.226667   -2.119663
Cl    -3.362371   10.435195    0.002043
C     -2.049681    1.029517    0.586634
O     -1.127672    1.241859   -0.430003
C      0.194482    1.169948   -0.039411
O      0.806438    0.182110   -0.811166
C      2.114373   -0.060515   -0.426157
C      2.911027   -0.410115   -1.692994
O      2.462152   -1.513634   -2.342992
C      2.451221   -2.711306   -1.710609
C      3.787514   -3.242015   -1.258978
O      4.360822   -2.370677   -0.379531
C      5.592305   -2.715920    0.114177
C      5.642839   -4.005540    0.876136
O      6.934425   -4.220023    1.311840
C      7.883704   -4.349182    0.329540
O      8.736210   -3.220623    0.478345
C      8.794705   -5.539926    0.600828
Cl    10.010534   -5.679499   -0.696439
Cl     9.669253   -5.149622    2.124026
Cl     7.925661   -7.064322    0.717136
C      2.767888    0.979547    0.394135
C      2.278401    2.377395    0.225719
O      3.187796    3.204559   -0.420903
C      3.604458    4.251036    0.398597
O      5.008630    4.092455    0.511468
C      3.415482    5.594681   -0.262403
Cl     1.725256    5.926793   -0.679397
Cl     3.911206    6.872207    0.904730
Cl     4.426964    5.787682   -1.690914
C      0.894672    2.469728   -0.379503
O      1.060320    2.645337   -1.751475
C     -2.985424   -0.043653    0.076425
O     -2.430892   -1.296021   -0.006835
C     -3.166254   -2.148991    0.804506
C     -2.669346   -3.565744    0.822821
O     -2.656205   -4.200769   -0.383656
C     -3.899628   -4.264825   -0.952832
C     -4.910334   -5.030957   -0.143608
O     -4.513631   -6.332786    0.047738
C     -5.390912   -7.144710    0.706385
O     -5.822422   -8.213242   -0.085935
C     -4.808442   -7.687992    1.957482
Cl    -4.381840   -6.374637    3.067481
Cl    -3.320208   -8.591572    1.563487
Cl    -5.965942   -8.774247    2.798486
C     -3.534583    0.457707   -1.232557
O     -2.913721   -0.309858   -2.246583
H     -5.111524    2.699733   -1.628900
H     -2.485514    2.013637   -2.290109
H     -3.991771    1.891481    1.081657
H     -1.446161    3.549911    1.556263
H     -2.403082    2.592623    2.718017
H     -4.143701    5.993770    1.430830
H     -4.052829    4.773376    0.168413
H     -1.611749    6.183198    1.330889
H     -1.575942    4.931764    0.066450
H     -3.428502    7.750985    0.840682
H     -3.995681    7.574770   -1.941225
H     -1.576422    0.806342    1.544552
H      0.335133    0.975947    1.039361
H      2.071624   -0.999084    0.174125
H      3.980942   -0.416074   -1.465089
H      2.765025    0.448875   -2.436377
H      1.779286   -2.743480   -0.810626
H      1.953288   -3.441900   -2.424265
H      3.583042   -4.241973   -0.791939
H      4.414126   -3.464491   -2.148955
H      5.868568   -1.910307    0.858768
H      6.341347   -2.698454   -0.700871
H      5.234163   -4.845783    0.271215
H      4.998051   -3.880029    1.778397
H      7.534456   -4.294931   -0.699539
H      9.285529   -3.093566   -0.347095
H      2.802798    0.668098    1.477639
H      3.861333    0.994065    0.102310
H      2.151696    2.812737    1.262511
H      3.135651    4.246956    1.394952
H      5.382190    4.331882   -0.370958
H      0.339664    3.352262   -0.023341
H      0.661845    1.919777   -2.298532
H     -3.869387   -0.034342    0.781254
H     -4.257045   -2.128657    0.544528
H     -3.133430   -1.807779    1.882817
H     -1.654479   -3.529534    1.288393
H     -3.310579   -4.123079    1.520921
H     -4.271644   -3.218705   -1.162594
H     -3.792733   -4.795569   -1.931537
H     -5.165916   -4.496048    0.814633
H     -5.884482   -5.041966   -0.705284
H     -6.295475   -6.506640    0.943161
H     -6.815321   -8.265788   -0.095546
H     -4.625526    0.178706   -1.322680
H     -1.933995   -0.329493   -2.128842
