43

C      3.133064    1.317687   -1.216168
C      3.573240    0.056210   -0.522735
C      4.903823   -0.449172   -1.019279
S      2.301069   -1.236602   -0.585089
C      1.802323   -1.150489    1.168216
C      0.364468   -0.734380    1.371206
N     -0.351914   -0.332127    0.204789
C     -1.653560   -0.843247   -0.019415
O     -2.141427   -1.640415    0.820606
C     -2.488806   -0.497944   -1.190618
N     -1.773052    0.419813   -2.038614
C     -3.795832    0.020957   -0.738427
C     -3.985174    1.299965   -0.266217
C     -5.236784    1.728290    0.143668
C     -6.325914    0.887276    0.090300
C     -6.160242   -0.406634   -0.381930
C     -4.917458   -0.806035   -0.780174
C      1.020920    0.390365    2.132136
O      0.517850    1.158513    2.991875
N      2.270631    0.170413    1.490753
C      3.593623    0.345902    0.974698
C      4.529241   -0.531577    1.713187
O      4.066584   -1.256128    2.789497
O      5.750975   -0.641570    1.391087
H      4.069961    1.923964   -1.386201
H      2.488909    1.944993   -0.567964
H      2.583469    1.133317   -2.155503
H      4.827755   -0.514370   -2.122658
H      5.735460    0.211927   -0.782369
H      5.029509   -1.496046   -0.661452
H      2.152141   -1.974500    1.782716
H     -0.143235   -1.428651    2.039077
H      0.046200    0.325126   -0.490987
H     -2.655904   -1.424025   -1.783720
H     -1.994917    0.300219   -3.044583
H     -1.904199    1.410954   -1.712445
H     -3.164539    1.976805   -0.211418
H     -5.422005    2.728926    0.520957
H     -7.316400    1.161059    0.392658
H     -6.985357   -1.090210   -0.438045
H     -4.785728   -1.813064   -1.148294
H      3.905778    1.427305    1.120101
H      4.535454   -2.072801    3.172255
