28

C      1.069127    0.386336   -0.259179
O      0.407685   -0.271224   -1.253646
C     -0.806242   -0.700284   -0.818663
O     -1.886458    0.001590   -1.404015
C     -2.859677   -0.196275   -0.421018
O     -2.223528    0.243028    0.722490
C     -0.977753   -0.338161    0.623532
C      0.074297    0.724009    0.822979
O      0.591377    0.587979    2.100145
C     -4.108053    0.605882   -0.677346
Cl    -3.772660    2.349251   -0.720228
Cl    -5.221879    0.299198    0.679433
Cl    -4.891806    0.057126   -2.168986
C      2.172034   -0.426410    0.380908
O      2.744643    0.388344    1.372733
C      3.269676   -0.764618   -0.597940
O      3.762584    0.417320   -1.144936
H      1.543229    1.298633   -0.672357
H     -0.997467   -1.776307   -0.941222
H     -3.116205   -1.250648   -0.325568
H     -0.872664   -1.189891    1.297868
H     -0.294929    1.741499    0.631633
H      0.360479   -0.273603    2.528275
H      1.785223   -1.318466    0.888918
H      2.782956    1.305933    0.952055
H      4.094653   -1.226651   -0.014695
H      2.926790   -1.463582   -1.376949
H      4.444570    0.789993   -0.530008
