29

C     -1.120540    0.637759   -0.425745
C      0.259641    1.062674   -0.171724
O      1.285228    0.210319   -0.493404
C      2.277523    0.278435    0.451340
C      2.699004   -0.985996    1.097112
Cl     3.283993   -2.110372   -0.176003
Cl     1.527422   -1.750170    2.149630
Cl     4.140093   -0.582174    2.125841
O      3.455228    0.843599   -0.103945
C      0.452708    2.282801   -1.156147
C     -1.661809   -0.574973    0.201274
C     -3.142256   -0.758875   -0.214431
C     -0.988500   -1.860053   -0.191608
O     -1.660204   -0.477175    1.583034
H     -1.233866    0.518058   -1.553607
H     -1.779379    1.533922   -0.188625
H      0.366585    1.568970    0.809630
H      2.000360    1.024486    1.260744
H      3.722345    0.255129   -0.869570
H      0.377443    1.889468   -2.186833
H      1.374000    2.808884   -0.915956
H     -0.393317    2.985680   -1.018966
H     -3.172500   -1.288582   -1.170019
H     -3.641400    0.223037   -0.307434
H     -3.654762   -1.374444    0.539151
H     -1.095036   -2.635827    0.594503
H     -1.500507   -2.243527   -1.105908
H      0.063451   -1.733434   -0.453208
H     -2.240946    0.252381    1.890875
