29

C      1.640948    0.446324   -1.063746
C      2.991447    0.452585   -1.282469
C      3.902463   -0.104486   -0.412207
C      3.445147   -0.701187    0.740029
C      2.075895   -0.708639    0.963812
C      1.160129   -0.151580    0.094320
C     -0.239435   -0.220509    0.432107
S     -1.095135   -1.489584   -0.515524
C     -2.666969   -1.615935    0.301547
C     -3.271450   -0.278866    0.397897
C     -2.408756    0.880228    0.464674
N     -1.009255    0.975704    0.253180
C     -0.458024    2.261930   -0.124788
O     -3.013709    1.975013    0.759514
O     -0.344180   -2.753860   -0.548099
O     -1.356256   -0.912182   -1.882993
Cl     5.624143   -0.088097   -0.706308
H      0.927412    0.896091   -1.770535
H      3.380832    0.913132   -2.177371
H      4.124264   -1.154127    1.457051
H      1.754404   -1.196536    1.897884
H     -0.363571   -0.521153    1.491395
H     -3.310791   -2.300299   -0.308219
H     -2.472174   -2.108444    1.289969
H     -3.921817   -0.265386    1.324922
H     -3.951632   -0.143645   -0.495747
H     -0.752325    2.499700   -1.169353
H     -0.989350    3.043810    0.495924
H      0.597745    2.369997    0.093134
