45

C      2.336637    2.003460    0.702333
C      1.534409    2.962730    1.252840
S     -0.023985    2.552032    0.664762
C      0.393768    1.193168   -0.250891
C      1.752942    1.069568   -0.081292
C      2.496267   -0.035143   -0.736934
N      2.227141   -0.517280   -1.938544
C      1.187571   -0.133201   -2.888140
C     -0.152792   -0.136177   -2.256258
N     -1.236572   -0.683999   -2.713254
N     -2.221839   -0.442881   -1.854230
C     -1.796726    0.280713   -0.797234
N     -0.496950    0.452237   -1.085526
C     -2.534966    0.785958    0.391686
C     -2.973302   -0.497849    1.139438
C     -3.841467   -1.361230    0.314888
C     -5.032713   -0.612270   -0.281596
C     -5.056770    0.717204    0.412866
C     -3.811132    1.490618    0.026934
C      3.662041   -0.595213   -0.121065
C      4.555488   -1.342603   -0.945688
C      5.620268   -2.041771   -0.476637
C      5.856286   -2.031021    0.882502
C      5.026590   -1.331014    1.727518
C      3.929145   -0.619119    1.213892
Cl     2.819099   -0.002727    2.441704
Br     2.052911    4.412649    2.407597
H      3.440859    2.046038    0.864576
H      1.422405    0.836894   -3.378138
H      1.231641   -0.927005   -3.689935
H     -1.948110    1.267018    1.153672
H     -3.403659   -0.257391    2.120778
H     -2.015943   -1.038669    1.324154
H     -4.306143   -2.099823    1.037506
H     -3.344669   -1.976456   -0.433990
H     -4.971324   -0.490992   -1.361252
H     -6.002242   -1.114174   -0.051999
H     -5.924736    1.324671    0.069969
H     -5.155570    0.586102    1.509194
H     -3.940801    2.460907    0.583078
H     -3.858413    1.648336   -1.068923
H      4.348923   -1.336638   -2.028658
H      6.279130   -2.598490   -1.126202
H      6.699660   -2.571295    1.328894
H      5.177647   -1.295871    2.798063
