52

C      4.018766   -1.431079    0.759303
C      3.475851   -0.142093    0.197961
O      4.380217    0.254917   -0.817881
C      3.526734    0.984886    1.211478
C      2.260987    1.769634    0.842257
C      1.330154    0.666411    0.626118
C      0.031725    0.948040   -0.031256
C     -0.712586    2.126860    0.441366
C     -1.992604    1.895042    1.156310
C     -2.762163    0.741432    0.649247
C     -4.004834    0.590032    1.055225
C     -4.848338   -0.511074    0.616851
O     -6.011751   -0.674343    1.063855
C     -4.321483   -1.462784   -0.381332
C     -2.821477   -1.599027   -0.121724
C     -2.151339   -0.239887   -0.301369
C     -2.379565    0.193197   -1.707867
C     -0.730265   -0.374147    0.087647
C     -0.008003   -1.471292   -0.612007
C      1.445716   -1.570049   -0.238559
C      2.106960   -0.238399   -0.340516
C      2.073709    0.258534   -1.746299
H      5.066825   -1.621541    0.447009
H      4.030339   -1.416923    1.873390
H      3.433497   -2.317853    0.460595
H      5.043572   -0.423615   -1.014724
H      3.395430    0.519570    2.229776
H      4.428019    1.597050    1.138753
H      2.499754    2.300363   -0.086992
H      1.987897    2.471153    1.656836
H      1.166707    0.083964    1.558241
H      0.222386    1.056796   -1.122425
H     -0.899406    2.859578   -0.400078
H     -0.053563    2.721488    1.139160
H     -2.646775    2.796896    1.006324
H     -1.789859    1.808197    2.245336
H     -4.474335    1.298682    1.756289
H     -4.459590   -1.026259   -1.380960
H     -4.762172   -2.472970   -0.281075
H     -2.429551   -2.291544   -0.864777
H     -2.687143   -1.901375    0.922161
H     -1.508641    0.692597   -2.171933
H     -2.630465   -0.671484   -2.384810
H     -3.249724    0.889427   -1.816718
H     -0.703646   -0.612341    1.188336
H     -0.478725   -2.442185   -0.272216
H     -0.175703   -1.460907   -1.714991
H      1.465360   -1.908262    0.834828
H      1.906484   -2.332367   -0.899096
H      2.101936    1.360617   -1.850258
H      1.265638   -0.174734   -2.368007
H      3.029043   -0.096828   -2.236782
