43

C      0.094165    1.323191   -1.495058
C      0.973373    1.803872   -0.506182
C      1.052408    1.141912    0.674195
C      0.280017    0.016499    0.879164
C     -0.572585   -0.446205   -0.085811
C     -0.675938    0.208625   -1.290058
N     -1.636329   -0.257439   -2.228768
C     -1.489253   -1.196577   -3.290218
C     -2.833226   -1.201465   -4.038800
C     -3.115675   -2.591217   -4.492492
O     -4.346609   -2.692836   -5.105623
C     -4.500159   -4.017833   -5.529247
O     -3.721583   -0.696552   -3.076678
C     -3.017429    0.161937   -2.253911
O     -3.445903    1.136344   -1.623820
O      1.920718    1.623099    1.683678
C      1.907508    0.871749    2.876635
C      2.785940    1.462923    3.917964
C      2.500057    1.238584    5.248925
C      3.249345    1.755487    6.313387
C      4.337439    2.533937    5.971768
C      4.650296    2.777875    4.641081
C      3.870271    2.238236    3.631213
C      2.869275    1.513926    7.630682
N      2.511356    1.293873    8.802184
H      0.059901    1.866427   -2.405871
H      1.560801    2.684819   -0.708383
H      0.381589   -0.497386    1.819318
H     -1.169513   -1.323707    0.081527
H     -0.720467   -0.943194   -4.050240
H     -1.231392   -2.227057   -2.944139
H     -2.777912   -0.509704   -4.913564
H     -3.020144   -3.254000   -3.584431
H     -2.336846   -2.858635   -5.247794
H     -5.477417   -4.098315   -6.040446
H     -3.693766   -4.268110   -6.222402
H     -4.520503   -4.672339   -4.624627
H      0.842805    0.841078    3.230323
H      2.247374   -0.143840    2.643340
H      1.658386    0.641452    5.521319
H      4.975746    2.973176    6.717482
H      5.487127    3.376372    4.320178
H      4.086754    2.411016    2.568052
