71

C      0.045561   -0.313827    0.353652
C     -0.760926   -1.092513   -0.697064
C     -2.180915   -0.981854   -0.374958
C     -2.605296    0.471569   -0.639191
F     -3.057433    0.465768   -1.977050
C     -3.843046    0.655212    0.192326
C     -4.848803   -0.247417   -0.491735
C     -6.017180    0.200611   -0.895473
C     -6.441087    1.578187   -0.722395
O     -7.556937    2.003401   -1.110404
C     -5.510451    2.480993   -0.067480
C     -4.337705    2.016009    0.334266
C     -4.502084   -1.655950   -0.710960
F     -5.338949   -2.224675   -1.681185
C     -3.092565   -1.841809   -1.235292
C     -3.691554    0.032046    1.592932
C     -1.510688    1.420949   -0.557764
O     -1.886547    2.727886   -0.377518
C     -0.398623    1.092269    0.408863
C     -0.081747   -2.408606   -0.588324
C      1.404196   -2.027503   -0.374768
O      2.097723   -2.273211   -1.561966
C      2.025779   -1.132926   -2.326265
O      1.360105   -0.172152   -1.617225
C      1.415414   -0.538920   -0.280315
C      2.497876    0.105474    0.436768
O      3.171467    0.919940   -0.226200
C      2.925644   -0.054675    1.829069
O      4.116075    0.730630    2.033295
C      5.283616    0.545797    1.355643
O      5.353566   -0.359826    0.494637
C      6.507521    1.381753    1.589314
C      6.359553    2.748594    2.144540
C      6.836853    1.630361    3.045784
C      3.429159   -0.641621   -2.652878
C      1.272411   -1.393277   -3.633807
C     -0.020678   -0.948226    1.715226
H     -0.481819   -0.596687   -1.657827
H     -2.398285   -1.276988    0.653155
H     -6.728257   -0.470862   -1.389595
H     -5.778802    3.536526    0.091207
H     -3.710388    2.761743    0.846057
H     -4.621478   -2.285507    0.185805
H     -3.006799   -1.524894   -2.296857
H     -2.808805   -2.894331   -1.149247
H     -2.693647    0.181633    2.013363
H     -4.373905    0.650322    2.253798
H     -4.106277   -0.978567    1.655360
H     -0.968513    1.441226   -1.568335
H     -1.566584    3.373661   -1.035400
H      0.487452    1.741733    0.173152
H     -0.700534    1.383903    1.436317
H     -0.435362   -3.041667    0.234551
H     -0.145197   -3.012227   -1.511986
H      1.820509   -2.568734    0.475052
H      2.166137    0.266436    2.582732
H      3.230965   -1.101524    2.018982
H      7.402980    1.147624    0.982218
H      5.335456    3.162424    2.316516
H      7.078457    3.516566    1.795717
H      6.160482    1.220874    3.796495
H      7.914791    1.755065    3.337427
H      3.744050   -1.164696   -3.600700
H      4.097913   -1.005144   -1.854949
H      3.492982    0.425852   -2.837960
H      0.843848   -2.392468   -3.586474
H      2.008728   -1.316621   -4.486287
H      0.534262   -0.577978   -3.823213
H      0.885420   -1.555359    1.945774
H     -0.161205   -0.136008    2.466273
H     -0.937882   -1.563785    1.807415
