50

C     -4.560653   -2.087644    0.363995
C     -3.596967   -1.077654    0.196755
C     -4.024519    0.201169    0.390733
C     -5.357716    0.496923    0.739533
C     -6.278668   -0.510531    0.896426
C     -5.858435   -1.807904    0.702958
Cl    -7.040309   -3.085456    0.905313
N     -7.629490   -0.281877    1.244953
O     -3.134609    1.256007    0.244762
C     -3.557373    2.586459    0.441150
C     -2.241834   -1.451655   -0.162885
N     -1.142494   -0.605678   -0.374938
C      0.181202   -1.096660   -0.734941
C      1.162130   -0.675476    0.350570
C      2.562617   -1.143962   -0.027014
N      2.949958   -0.722511   -1.328288
C      3.313569    0.671892   -1.368277
C      4.456847    0.939498   -0.470338
C      4.249664    1.352932    0.824012
C      5.322953    1.597118    1.644903
C      6.600577    1.426733    1.167730
C      6.819370    1.012805   -0.127592
C      5.733853    0.769579   -0.946042
C      2.015590   -1.104984   -2.339949
C      0.667743   -0.495209   -2.027476
O     -1.964047   -2.706902   -0.318320
H     -4.253106   -3.109726    0.217366
H     -5.635453    1.528171    0.879438
H     -7.860385   -0.081329    2.235438
H     -8.396464   -0.307161    0.548516
H     -2.686655    3.272527    0.440017
H     -4.313048    2.858131   -0.322567
H     -4.025218    2.705339    1.456674
H     -1.256439    0.412136   -0.276286
H      0.229013   -2.187918   -0.821252
H      1.199591    0.404963    0.498176
H      0.926772   -1.174128    1.322416
H      3.293602   -0.909513    0.758808
H      2.493590   -2.265060   -0.047469
H      3.611398    0.929613   -2.408551
H      2.451727    1.351268   -1.140313
H      3.238559    1.477171    1.167982
H      5.128255    1.919978    2.654089
H      7.468520    1.610459    1.788142
H      7.813115    0.866983   -0.540680
H      5.921077    0.444714   -1.961825
H      2.351094   -0.870247   -3.365151
H      1.918419   -2.228473   -2.269526
H     -0.024968   -0.710831   -2.872319
H      0.758045    0.605919   -1.965116
