22

C      2.994202   -0.191929   -0.822090
C      1.767649    0.445019   -0.943730
C      1.036890    0.676474    0.227800
C      1.495017    0.297698    1.457076
C      2.720273   -0.332960    1.531394
C      3.484410   -0.587217    0.409154
Cl     0.518253    0.625136    2.870723
N     -0.225921    1.327277    0.144949
C     -1.451139    0.611275   -0.027067
N     -1.560557   -0.635349    0.282830
C     -2.907619   -1.086297    0.001424
C     -3.368618   -0.057165   -1.008917
O     -2.661936    1.096979   -0.525418
Cl     1.152385    0.943908   -2.512208
H      3.598186   -0.391745   -1.718859
H      3.111094   -0.644818    2.485352
H      4.446902   -1.086707    0.501813
H     -0.267590    2.368208    0.211540
H     -2.941148   -2.119155   -0.399163
H     -3.561711   -1.001324    0.917187
H     -4.444263    0.100535   -1.020554
H     -2.934762   -0.357841   -1.989768
