54

C     -1.487147    0.237029   -0.486919
F     -1.577801   -0.387217   -1.716854
C     -0.675173   -0.744974    0.399337
C      0.681584   -0.652342   -0.142980
C      1.405301    0.556419    0.407509
C      2.707011    0.413932   -0.351732
C      2.915812   -1.077584   -0.403075
C      1.650614   -1.727370    0.158636
C      4.159590   -1.570933    0.242705
O      2.435349    0.847972   -1.648373
C      3.813742    1.154621    0.238665
O      4.227623    0.953674    1.392534
C      4.542343    2.217507   -0.495790
Cl     3.956595    2.502444   -2.132171
C      0.609664    1.756231    0.010047
C     -0.700383    1.450142   -0.619663
O     -1.142725    2.361486   -1.337005
C      1.692781    0.489223    1.870426
C     -1.293049   -2.086167    0.420259
C     -2.697443   -1.995886    1.027201
C     -3.472689   -0.963894    0.253489
C     -4.631152   -1.274894   -0.228147
C     -5.462786   -0.352019   -1.002911
O     -6.574815   -0.677900   -1.452216
C     -4.916979    0.972162   -1.220244
C     -3.717550    1.252595   -0.701987
C     -2.871217    0.378283    0.076730
C     -2.708681    1.058516    1.452526
H     -0.786813   -0.294910    1.427419
H      0.676228   -0.512740   -1.257994
H      2.936983   -1.437475   -1.477123
H      1.727080   -1.960603    1.229348
H      1.441397   -2.690213   -0.353246
H      3.909814   -1.925095    1.271367
H      5.002659   -0.883507    0.196946
H      4.523800   -2.511441   -0.272277
H      2.592589    0.161817   -2.331721
H      5.625445    1.963901   -0.578351
H      4.517336    3.192688    0.035167
H      1.229680    2.407225   -0.650039
H      0.406151    2.354210    0.919390
H      2.096028    1.498375    2.181214
H      2.408751   -0.286773    2.153229
H      0.801067    0.349515    2.514037
H     -1.415724   -2.527774   -0.585107
H     -0.720743   -2.743904    1.089910
H     -3.140644   -3.000592    0.936538
H     -2.699288   -1.695113    2.072364
H     -5.083155   -2.269173   -0.089313
H     -5.485955    1.699986   -1.792116
H     -3.406571    2.305660   -0.939402
H     -1.854685    1.757441    1.386101
H     -2.543790    0.318561    2.243034
H     -3.626063    1.638878    1.675539
