61

C     -3.540961   -0.130010   -1.600007
C     -3.837662    0.487194   -0.311745
C     -4.524189    1.609824   -0.269157
C     -4.851426    2.275304    0.999844
C     -4.366950    1.611513    2.200852
C     -3.683813    0.493357    2.155061
C     -3.367805   -0.153897    0.898635
C     -1.881596   -0.404019    0.760948
C     -1.472646   -1.098317   -0.479667
C     -2.378127   -1.040354   -1.645150
C     -0.160032   -0.536376   -0.931518
C      0.571896   -1.356060   -1.937214
C      1.826249   -0.512741   -2.084005
C      2.017836    0.181905   -0.744035
C      3.338972   -0.077573   -0.185138
C      3.734391    0.511976    1.111584
O      5.040081    0.148502    1.459632
C      6.099365    0.483498    0.665522
O      5.915159    1.125697   -0.391280
C      7.474852    0.084969    1.056255
O      4.146100   -0.775649   -0.757032
C      0.870496   -0.347602    0.132557
C      1.348329   -1.618874    0.754923
C      0.358960    0.668283    1.091514
C     -1.130156    0.922369    0.947372
O     -1.549120    1.492208    2.151140
C      1.503622    0.525574   -3.166101
Cl    -1.499811   -1.351436    2.235221
C     -3.997223   -1.558102    0.964150
O     -5.503728    3.338833    1.009609
F     -3.409132    0.929551   -2.516869
H     -4.485948   -0.645659   -1.949397
H     -4.875780    2.088249   -1.171732
H     -4.610430    2.107978    3.151982
H     -3.359696    0.063269    3.087387
H     -1.252719   -2.170712   -0.182705
H     -1.848334   -0.821786   -2.625731
H     -2.769424   -2.087779   -1.836346
H     -0.360143    0.458171   -1.382400
H      0.919118   -2.337212   -1.520416
H      0.053302   -1.499480   -2.895815
H      2.706368   -1.112236   -2.374315
H      1.791755    1.265845   -0.878344
H      3.709416    1.636883    0.993739
H      2.998209    0.311768    1.916468
H      8.199448    0.255522    0.218635
H      7.780573    0.663901    1.959331
H      7.550341   -1.007783    1.278184
H      0.682166   -2.494622    0.497975
H      2.357546   -1.936395    0.382357
H      1.468991   -1.531887    1.858295
H      0.615543    0.415226    2.160142
H      0.864771    1.634932    0.887193
H     -1.371753    1.611653    0.140434
H     -1.538889    2.474864    2.131934
H      0.692299    0.166222   -3.835527
H      1.151299    1.473125   -2.693850
H      2.370726    0.757238   -3.787156
H     -3.292151   -2.298638    1.340047
H     -4.335441   -1.887982   -0.038329
H     -4.903096   -1.482226    1.592057
