49

C     -3.580046    0.872020    0.369586
C     -2.202451    0.822496    0.107066
C     -1.554336   -0.474676   -0.185335
O     -0.259975   -0.418412   -0.372653
C      0.784453   -0.238282    0.384564
C      1.998098   -0.283114   -0.574162
N      3.256516   -0.152482    0.000304
C      4.246396   -0.111373   -1.031969
C      4.215075    1.186209   -1.819433
C      3.448815    0.650507    1.127096
C      4.859561    0.732841    1.628959
C     -2.150228   -0.985372   -1.491884
C     -3.159821   -2.040972   -1.421692
C     -2.960994   -3.156473   -0.457645
C     -1.697232   -2.840075    0.359359
C     -1.928837   -1.477693    0.929309
C     -1.583333    2.057860    0.098776
C     -2.238989    3.254101    0.327091
C     -3.579196    3.264247    0.577665
C     -4.237289    2.053742    0.594860
Cl    -4.396377    4.776174    0.843377
H     -4.129578   -0.029892    0.377015
H      1.050582   -1.034003    1.129007
H      0.782228    0.685577    0.975830
H      1.911007   -1.275829   -1.106221
H      1.825966    0.471572   -1.369824
H      5.243569   -0.444178   -0.782427
H      3.886599   -0.876039   -1.799085
H      3.378984    1.288628   -2.502912
H      5.154231    1.228904   -2.417813
H      4.256881    2.069315   -1.144426
H      2.865633    0.180993    1.981208
H      3.108050    1.682819    0.916067
H      5.056528    0.062455    2.494822
H      5.064923    1.775913    2.007860
H      5.631075    0.534369    0.896911
H     -1.328905   -1.335371   -2.188573
H     -2.585654   -0.109683   -2.037143
H     -3.180837   -2.543054   -2.441050
H     -4.220116   -1.667486   -1.351280
H     -2.811778   -4.157420   -0.913928
H     -3.856845   -3.253233    0.205665
H     -1.585309   -3.609131    1.121365
H     -0.869866   -2.906736   -0.373762
H     -2.999459   -1.362072    1.117562
H     -1.412488   -1.260873    1.861642
H     -0.532345    2.127554   -0.094302
H     -1.664448    4.164675    0.300308
H     -5.318436    2.100951    0.802369
