18

C      2.243466   -0.151168    0.297009
C      3.606929   -0.168466   -0.360021
Cl     4.786723   -0.674008    0.880523
Cl     4.026424    1.444226   -1.000793
Cl     3.652856   -1.396957   -1.646832
O      1.236456    0.246563   -0.636534
C     -0.085936    0.298375   -0.128542
O     -1.131763    0.661982   -0.915914
C     -2.462484    0.778835   -0.682190
C     -3.253907   -0.444361   -0.353136
Cl    -4.962148    0.081252   -0.139926
Cl    -3.191637   -1.636881   -1.671010
Cl    -2.732698   -1.128620    1.180631
O     -0.318744    0.008897    1.061414
H      2.000297   -1.202960    0.561267
H      2.239765    0.488131    1.199467
H     -2.729926    1.574477    0.076365
H     -2.923673    1.220683   -1.632021
