32

C      2.750224   -0.523871   -0.657436
C      2.118897   -1.267293    0.430098
C      2.228319   -2.591525    0.456562
C      2.879600   -3.353204   -0.517021
C      3.468511   -2.690653   -1.610039
C      3.406701   -1.361050   -1.656107
Cl     4.175683   -3.653490   -2.902270
Cl     1.574252   -3.542855    1.806542
O      1.437777   -0.634943    1.321513
C      1.019423    0.635599    1.741848
C      0.221442    1.291832    0.585299
C     -1.011744    0.528649    0.282764
N     -1.844440    0.965556   -0.800549
C     -2.387865    2.217411   -0.726647
C     -3.498922    2.555708   -0.007689
C     -4.535428    2.854931    0.678341
C     -2.987475   -0.032886   -0.676217
H      2.679022    0.480883   -0.711930
H      2.977499   -4.446600   -0.487991
H      3.863460   -0.806240   -2.504228
H      1.602910    1.320512    2.272643
H      0.163104    0.358613    2.514054
H      0.903418    1.418787   -0.247294
H     -0.003288    2.352101    0.916904
H     -0.716166   -0.555265   -0.093090
H     -1.579196    0.260177    1.204930
H     -1.524169    2.819269    0.058126
H     -2.203737    2.910989   -1.619452
H     -5.580360    3.176174    1.373350
H     -2.527036   -1.013030   -0.834352
H     -3.796939    0.293202   -1.292554
H     -3.273477    0.032512    0.445608
