50

C      6.130528    0.589508    1.717860
C      5.112084    0.390294    0.772796
C      3.732438    0.467470    1.171785
C      2.512594    0.297514    0.411105
C      2.282264    1.201874   -0.751529
C      0.761295    1.299090   -0.911847
N      0.108823    0.092295   -0.568501
C     -1.061403    0.189334    0.255082
C     -2.145289    0.847790   -0.549185
C     -3.447834    1.038740    0.159848
C     -4.092266   -0.188739    0.629426
C     -5.426925   -0.589067    0.242241
C     -5.947884   -1.762265    0.753465
C     -7.203848   -2.231797    0.436627
C     -7.999609   -1.495810   -0.442708
F     -9.234409   -1.930203   -0.772639
C     -7.495918   -0.327981   -0.958956
C     -6.221752    0.124018   -0.621430
O     -3.435504   -0.922427    1.410319
C      0.810015   -1.116083   -0.581401
C      2.211899   -1.116011   -0.030504
O      3.554991    0.735106    2.430447
C      5.470381    0.125954   -0.527711
C      6.823777    0.069664   -0.839812
C      7.831819    0.262320    0.073850
C      7.453915    0.523897    1.361079
Cl     9.529810    0.173655   -0.402009
H      5.858905    0.802774    2.768123
H      1.616295    0.522992    1.117864
H      2.588636    0.658552   -1.687250
H      2.782432    2.164084   -0.737007
H      0.441959    2.116597   -0.236424
H      0.493810    1.585466   -1.946554
H     -1.311629   -0.863641    0.552263
H     -0.914287    0.766311    1.184489
H     -2.336469    0.219911   -1.447945
H     -1.767327    1.847814   -0.846922
H     -4.090864    1.637926   -0.521538
H     -3.324055    1.720816    1.062019
H     -5.375566   -2.369966    1.438655
H     -7.628685   -3.145285    0.824357
H     -8.094319    0.259303   -1.643924
H     -5.901103    1.048772   -1.069806
H      0.224468   -1.873863    0.011832
H      0.848929   -1.515752   -1.617590
H      2.927122   -1.397061   -0.818711
H      2.316567   -1.817894    0.838108
H      4.733939   -0.040150   -1.327834
H      7.082732   -0.141866   -1.877841
H      8.214518    0.681054    2.113937
