57

C      3.930706   -2.129152    0.000015
C      2.682303   -1.537018   -0.510896
C      1.440155   -1.903640    0.309308
C      0.429778   -1.034685   -0.463758
C     -0.842599   -0.854014    0.231606
C     -0.811202   -0.864433    1.737902
C     -2.207945   -1.001280    2.315309
F     -2.469785   -2.287559    2.714091
F     -2.399044   -0.181321    3.399609
C     -3.223375   -0.608524    1.273217
C     -4.323032   -1.311644    1.190254
C     -5.361087   -1.006441    0.213381
O     -6.419000   -1.662103    0.114336
C     -5.112791    0.113900   -0.659654
C     -4.003286    0.798074   -0.551863
C     -2.935134    0.528340    0.413749
C     -2.776144    1.808920    1.232880
C     -1.621371    0.282478   -0.369266
F     -2.079663   -0.228607   -1.602990
C     -0.873855    1.526386   -0.643913
O     -1.037399    1.885271   -2.005553
C      0.617930    1.461905   -0.404533
C      1.177843    0.166983   -0.927239
C      1.243359    0.283434   -2.436699
C      2.595803   -0.032871   -0.385026
O      2.601839    0.242882    0.981918
C      3.627066    0.719045   -1.067838
O      3.804541    0.611964   -2.259160
C      4.509893    1.654207   -0.329404
O      4.249951    1.729694    1.020272
H      3.665096   -3.055726    0.585076
H      4.616372   -1.468115    0.526085
H      4.507276   -2.535137   -0.884352
H      2.460046   -1.821844   -1.552971
H      1.198422   -2.961504    0.273608
H      1.577585   -1.487790    1.344122
H      0.248710   -1.658894   -1.394896
H     -1.471766   -1.781587   -0.010535
H     -0.269125   -1.771360    2.063477
H     -0.353517   -0.007588    2.214932
H     -4.480523   -2.157118    1.869044
H     -5.836460    0.419132   -1.426996
H     -3.881117    1.655138   -1.265664
H     -1.820348    1.899732    1.735161
H     -3.064688    2.648559    0.611473
H     -3.542376    1.746587    2.058820
H     -1.211081    2.434964   -0.094367
H     -0.664021    2.783063   -2.186331
H      1.088098    2.280784   -0.989932
H      0.854896    1.652566    0.653907
H      1.622876    1.278695   -2.752158
H      1.868921   -0.468616   -2.925108
H      0.228185    0.152318   -2.903161
H      3.235522   -0.317166    1.489676
H      4.473824    2.683131   -0.738496
H      5.582784    1.317524   -0.429789
H      4.951952    1.370059    1.599323
