77

C     -0.343632   -1.378819    0.585221
C     -1.619206   -0.663589    0.826487
C     -2.689800   -1.180448   -0.081482
C     -3.882819   -0.359563    0.390683
C     -5.106704   -1.126981    0.604832
C     -6.385233   -0.856708   -0.034714
O     -6.451756    0.394837   -0.657400
C     -6.414853    1.605215    0.020150
C     -6.486445    2.861012   -0.746673
O     -6.322135    1.638155    1.264978
O     -5.093217   -2.088666    1.377870
O     -4.017230    0.684548   -0.534505
C     -3.488482    0.185936    1.779599
C     -2.230588   -0.634728    2.149391
C     -3.013195    1.602428    1.564943
C     -2.251312   -0.781839   -1.470407
C     -0.832612   -1.227051   -1.801207
C      0.129060   -0.857162   -0.750819
C      1.590316   -1.047826   -0.983808
C      2.350770   -0.568452    0.194767
C      3.412681    0.170925    0.119156
C      4.014098    0.651407   -1.120222
C      3.340202    0.261227   -2.258909
C      2.056096   -0.468929   -2.247603
C      4.129924    0.778671   -3.291551
N      5.171290    1.415585   -2.739938
N      5.119731    1.350878   -1.425167
C      5.999168    1.876422   -0.438384
C      6.547909    1.065206    0.540438
C      7.404622    1.535862    1.514643
C      7.730720    2.879092    1.514203
C      7.195778    3.713926    0.545944
C      6.338622    3.213011   -0.419172
C      1.841733   -0.944438    1.552673
C      0.597417   -1.309871    1.683260
C      2.799517   -0.882660    2.716365
C      1.969036   -2.546529   -1.058569
O     -0.937252   -2.542135   -2.161535
C     -3.013296   -2.614600    0.058502
H     -0.624928   -2.460153    0.383387
H     -1.459309    0.414548    0.514268
H     -7.174465   -0.818919    0.779185
H     -6.660030   -1.667774   -0.764331
H     -5.474744    3.267232   -0.965314
H     -7.049159    3.660379   -0.211703
H     -7.007305    2.736721   -1.722862
H     -4.267337    0.238937   -1.385594
H     -4.278167    0.076484    2.514092
H     -2.487495   -1.575824    2.620810
H     -1.706787   -0.000482    2.903681
H     -2.902053    1.855316    0.491054
H     -2.003712    1.762727    2.015851
H     -3.764829    2.295236    2.013536
H     -2.264646    0.310850   -1.538920
H     -2.926279   -1.226954   -2.198329
H     -0.580951   -0.572982   -2.701118
H      0.013115    0.278752   -0.643031
H      3.923347    0.475774    1.050486
H      2.201714   -1.273976   -3.056798
H      1.270526    0.211398   -2.722335
H      3.931825    0.679996   -4.344441
H      6.257907    0.016390    0.494277
H      7.819103    0.859756    2.273980
H      8.402150    3.248578    2.277578
H      7.481078    4.755804    0.588289
H      5.924258    3.872727   -1.173318
H      0.259789   -1.579734    2.707777
H      3.025031    0.168052    2.989468
H      2.372189   -1.409294    3.568604
H      3.740538   -1.444966    2.443581
H      1.451806   -3.115777   -0.270795
H      1.951882   -2.945001   -2.065044
H      3.062887   -2.648643   -0.761204
H     -0.358036   -3.190053   -1.764735
H     -3.972107   -2.828861   -0.456927
H     -2.289859   -3.305661   -0.429610
H     -2.995871   -2.923952    1.124014
