44

C      5.449193    0.786225   -0.160817
O      4.272416    0.163488   -0.578424
C      3.008040    0.499952   -0.115911
C      2.830519    1.512345    0.823537
C      1.554765    1.846699    1.285796
C      0.473912    1.154498    0.793214
C     -0.914392    1.424084    1.226623
C     -1.911797    0.398677    0.835333
N     -2.697309    0.888239   -0.242875
C     -3.874988    1.562816    0.036353
C     -2.018579    1.141604   -1.454150
C     -1.003458    0.128130   -1.845543
C     -0.391319   -0.635946   -0.732184
C      0.405579   -1.797499   -1.243305
O      1.701944   -1.224507   -1.512998
C      1.915052   -0.191027   -0.605714
C      0.692310    0.178382   -0.119309
C      0.550828   -2.885117   -0.267382
O      1.476172   -3.664991   -0.411142
C     -0.369000   -3.087221    0.886557
C     -0.757010   -1.746020    1.473878
C     -1.347382   -0.927244    0.369570
O     -2.416970   -1.651446   -0.165329
H      5.403341    0.930380    0.955476
H      5.539975    1.798029   -0.612895
H      6.331169    0.163830   -0.383683
H      3.704604    2.034927    1.187818
H      1.417879    2.644864    2.026378
H     -1.193504    2.410255    0.790443
H     -0.885405    1.612170    2.333543
H     -2.572530    0.187665    1.690647
H     -4.762193    0.896787    0.097731
H     -4.056581    2.355579   -0.730262
H     -3.822982    2.075001    1.033473
H     -2.781560    1.236797   -2.271620
H     -1.513525    2.138882   -1.372850
H     -1.449716   -0.552096   -2.601640
H     -0.167266    0.649819   -2.396538
H      0.032601   -2.170129   -2.211268
H      0.074154   -3.738118    1.648021
H     -1.305547   -3.565429    0.501233
H      0.100805   -1.265238    1.974853
H     -1.570838   -1.956988    2.214785
H     -3.151411   -1.761113    0.487569
