41

C     -3.874694    0.947838   -1.279907
C     -2.738218    0.261099   -0.588784
C     -1.485064    1.076261   -0.941337
C     -0.372121    0.288599   -0.434510
O      0.898444    0.923250   -0.665181
C      2.021526    0.153760   -0.758655
C      3.327035    0.851172   -0.944596
N      3.772216    1.257661    0.401593
C      4.085938    0.074862    1.074851
O      3.965690   -0.093050    2.337227
C      4.541881   -0.918681    0.090751
C      4.395740   -0.213043   -1.236163
O      1.974591   -1.126422   -0.672029
C     -0.452619    0.438463    1.155768
C     -1.724845   -0.071963    1.695040
C     -2.942355    0.278317    0.868355
C     -1.686506   -1.565348    2.063204
C     -2.582621   -1.120329   -1.181715
H     -4.761385    0.283917   -1.277097
H     -3.626250    1.266363   -2.311177
H     -4.183703    1.846583   -0.697402
H     -1.402650    1.170880   -2.044142
H     -1.547856    2.085978   -0.520822
H     -0.351102   -0.755356   -0.543117
H      3.285923    1.652920   -1.653505
H      3.793130    2.227529    0.676897
H      5.583533   -1.142216    0.331314
H      3.929466   -1.828494    0.128557
H      4.060682   -0.890535   -2.011924
H      5.333983    0.366681   -1.460293
H     -0.149212    1.426196    1.441596
H      0.365091   -0.245494    1.492047
H     -1.887559    0.445493    2.680953
H     -3.317354    1.303459    1.162895
H     -3.748417   -0.437307    1.164167
H     -2.662846   -2.037522    1.883044
H     -1.491293   -1.706246    3.144267
H     -0.834392   -2.075046    1.559929
H     -3.513619   -1.456850   -1.654463
H     -1.802868   -1.089918   -2.007491
H     -2.195318   -1.853461   -0.468145
