38

C     -0.656811    1.332413    1.184882
C     -0.977235    0.386620    0.080661
N      0.237340    0.055893   -0.632525
C      1.349754   -0.572306   -0.018926
C      2.574877   -0.881420   -0.731993
C      3.582016   -1.472331   -0.104702
C      4.853777   -1.806650   -0.796484
O      1.264876   -0.871179    1.196186
C      0.345011    0.332466   -2.068545
C      0.963966    1.680230   -2.341216
C     -1.670676   -0.840305    0.561493
N     -2.946192   -0.885839    1.148202
C     -3.774754    0.279122    1.350206
C     -3.480747   -2.154039    1.583919
O     -1.051097   -1.955341    0.428533
C     -0.041993    2.638066    0.736623
H      0.033345    0.900633    1.960837
H     -1.559818    1.617348    1.771034
H     -1.665315    0.867955   -0.634368
H      2.753092   -0.663347   -1.773615
H      3.483097   -1.722266    0.943351
H      5.670897   -1.805979   -0.038690
H      5.063350   -1.039931   -1.567808
H      4.736334   -2.793015   -1.275531
H      0.911504   -0.470587   -2.539990
H     -0.707712    0.392859   -2.495262
H      1.476970    1.684703   -3.335429
H      1.642351    1.967940   -1.529694
H      0.185579    2.474501   -2.433759
H     -4.839050   -0.047101    1.236870
H     -3.693123    0.734411    2.341076
H     -3.502925    1.013150    0.549193
H     -4.553804   -2.229277    1.242150
H     -3.533815   -2.108511    2.698022
H     -2.889326   -3.019129    1.248604
H     -0.435695    3.022554   -0.199324
H      1.066405    2.553647    0.699292
H     -0.214453    3.404040    1.556723
