33

C     -1.409291   -1.535514   -0.810323
C     -0.958874   -0.351589    0.024852
C      0.535801   -0.309208   -0.080146
C      1.321700   -0.414736    0.984779
C      2.798010   -0.374760    0.897403
C      3.318735    0.469728   -0.224856
C      2.289033    0.884329   -1.223267
C      1.185753   -0.144426   -1.406243
C     -1.402581   -0.437208    1.424905
N     -1.576106    0.742881    2.203899
C     -1.696317    1.994603    1.577937
O     -1.852338    3.060610    2.264904
N     -1.646428    2.101721    0.155805
C     -1.472811    0.905250   -0.580845
O     -1.764479    0.901793   -1.798580
O     -1.637930   -1.553285    1.963319
C     -2.899238   -1.709922   -0.803478
H     -0.877138   -2.424338   -0.399873
H     -1.000095   -1.368740   -1.830352
H      0.802879   -0.534638    1.943310
H      3.189646   -0.035567    1.892602
H      3.137598   -1.434055    0.748633
H      4.167446   -0.059038   -0.712125
H      3.776538    1.384918    0.243202
H      2.774539    1.039463   -2.211460
H      1.818518    1.833360   -0.877729
H      0.515848    0.193806   -2.193568
H      1.692805   -1.106230   -1.650488
H     -1.618874    0.716883    3.247135
H     -1.735775    3.023970   -0.287996
H     -3.139579   -2.474224   -0.016089
H     -3.171672   -2.198013   -1.780425
H     -3.465326   -0.787823   -0.684842
