41

C      1.247622    0.340927    0.244829
C      2.679560    0.110715    0.667470
C      3.406699   -0.674095   -0.395256
C      4.817232   -0.898912    0.145498
C      5.544827    0.407305    0.214958
C      4.651785    1.606551    0.240801
C      3.362190    1.402532    0.976975
C      0.504748   -0.951574    0.034363
C     -0.884188   -0.650094   -0.379973
O     -1.819268   -1.624644   -0.667114
C     -3.145002   -1.353766   -1.065140
C     -3.947159   -0.587428   -0.065672
N     -5.275309   -0.332521   -0.500833
C     -5.329207    0.594102   -1.593997
C     -6.072036    0.150899    0.589990
O     -1.223786    0.552154   -0.474518
H      0.746763    0.954219    1.023790
H      1.194889    0.950506   -0.676832
H      2.660407   -0.515910    1.575624
H      3.477233   -0.080739   -1.330054
H      2.966878   -1.661918   -0.522837
H      5.332603   -1.648446   -0.482761
H      4.714019   -1.305126    1.161317
H      6.223218    0.369943    1.119135
H      6.198120    0.496740   -0.677844
H      4.442341    1.994383   -0.787168
H      5.205874    2.419986    0.757479
H      2.677170    2.234011    0.671565
H      3.506099    1.527542    2.072893
H      0.488011   -1.560278    0.964729
H      0.947440   -1.581504   -0.743435
H     -3.168526   -0.875668   -2.067032
H     -3.624852   -2.365035   -1.210439
H     -4.037980   -1.246567    0.854193
H     -3.435905    0.318374    0.314686
H     -5.039752    1.613601   -1.262279
H     -4.748177    0.287539   -2.465482
H     -6.413448    0.651719   -1.891169
H     -6.868051   -0.572978    0.889762
H     -6.566959    1.101985    0.284407
H     -5.396127    0.401472    1.437126
