26

C      3.457322    0.357758    1.981972
N      4.066268    0.085909    0.815990
C      3.390734   -0.051418   -0.341786
N      2.055573    0.083367   -0.361467
C      1.381853    0.359594    0.791480
C      2.063431    0.501292    1.977189
N      1.170540    0.763051    2.922427
C     -0.029232    0.787340    2.363884
N      0.083469    0.542708    1.062868
C     -1.011249    0.479204    0.074839
O     -1.434021   -0.823544    0.043894
C     -2.460060   -1.082563   -0.827505
C     -3.715375   -0.310762   -0.557178
O     -4.248700   -0.557384    0.699676
N      4.113718   -0.340176   -1.536394
H      3.986331    0.471624    2.924059
H     -1.005939    0.973315    2.837467
H     -1.792312    1.210420    0.353515
H     -0.627330    0.816311   -0.922413
H     -2.191166   -0.919074   -1.891851
H     -2.715669   -2.166732   -0.726254
H     -3.584613    0.779620   -0.757177
H     -4.476364   -0.653751   -1.296850
H     -5.240968   -0.448665    0.715063
H      4.408270   -1.310938   -1.770139
H      4.355490    0.453493   -2.199842
