62

C      2.362660    0.374176   -0.095642
O      3.402516   -0.234492   -0.794651
C      3.981508   -1.165685    0.061106
O      3.089297   -1.360543    1.119754
C      2.488423   -0.119860    1.317640
C      1.075412   -0.201952    1.768793
C      0.243854   -0.630334    0.546140
C      1.003995   -0.111881   -0.611922
C      0.345438    0.810221   -1.538112
C     -1.131178    0.997306   -1.397406
O     -1.426183    2.266202   -0.902589
C     -1.776153   -0.120694   -0.692263
C     -1.193333   -0.357412    0.659779
C     -1.632072    0.607668    1.732075
C     -3.121044    0.364472    1.966456
C     -3.671121   -0.419291    0.800709
C     -4.488283   -1.399105    1.057303
C     -5.074962   -2.224688    0.009303
O     -5.866157   -3.174188    0.231863
C     -4.722188   -1.929148   -1.366955
C     -3.892223   -0.925132   -1.568116
C     -3.276065   -0.057364   -0.562504
C     -3.814995    1.359610   -0.884917
C      1.374797   -1.356210   -1.469275
C      4.424072   -2.427505   -0.606953
C      5.237945   -0.493861    0.630476
C      2.558032    1.812398   -0.098513
O      3.432127    2.293895   -0.832982
C      1.776126    2.791794    0.736175
O      2.136771    4.101136    0.417192
H      3.138834    0.491943    1.938761
H      0.700380    0.747276    2.203349
H      1.010780   -0.947611    2.587037
H      0.361918   -1.767168    0.608756
H      0.532534    0.532289   -2.625981
H      0.808059    1.818737   -1.491972
H     -1.599680    1.013025   -2.434199
H     -1.138377    2.961485   -1.545299
H     -1.545622   -1.052920   -1.289441
H     -1.710885   -1.329418    0.999055
H     -1.379035    1.647194    1.568418
H     -1.154074    0.281642    2.679772
H     -3.620634    1.342121    1.989668
H     -3.340576   -0.159275    2.903330
H     -4.772819   -1.644784    2.108446
H     -5.131087   -2.518940   -2.206082
H     -3.672385   -0.769233   -2.656577
H     -3.562552    2.082239   -0.118933
H     -3.417975    1.624453   -1.873591
H     -4.915601    1.226219   -1.018552
H      0.560378   -1.550443   -2.194460
H      1.544987   -2.229244   -0.839492
H      2.256351   -1.052225   -2.072147
H      4.213075   -3.334737    0.032481
H      4.017163   -2.586789   -1.618250
H      5.546490   -2.465558   -0.736325
H      5.631225   -1.140229    1.433618
H      4.958666    0.498037    1.023163
H      5.988017   -0.353394   -0.197810
H      2.079966    2.652792    1.810375
H      0.704388    2.621584    0.708253
H      3.061075    4.291397    0.692670
