26

C     -0.066423   -0.437039   -0.790110
C     -1.471943   -0.124035   -0.464942
C     -2.214219   -0.717506    0.511114
C     -3.541787   -0.333508    0.729347
C     -4.135674    0.651271   -0.032319
C     -3.408777    1.253960   -1.011050
C     -2.107417    0.870627   -1.217588
C      0.708691   -1.098975    0.280892
N      1.955949   -0.336527    0.339964
C      3.247296   -0.493002    0.913624
C      4.248265    0.448278    0.338031
S      3.133652    1.875615   -0.040054
C      1.718919    0.842333   -0.365256
N      0.619896    0.826811   -0.991936
H      0.000076   -1.035233   -1.733989
H     -1.757213   -1.493678    1.113285
H     -4.089955   -0.818202    1.499337
H     -5.173625    0.952112    0.137644
H     -3.814813    2.033166   -1.643812
H     -1.528669    1.350738   -1.997127
H      0.929219   -2.145647   -0.012130
H      0.213946   -1.096850    1.289261
H      3.232175   -0.307139    2.020077
H      3.631830   -1.524259    0.706751
H      4.659711    0.116891   -0.637797
H      5.010891    0.739797    1.058782
