27

C      1.470834   -0.797307    0.651037
C      1.204325    0.294359   -0.158983
C     -0.024533    0.382570   -0.929194
N     -1.212327    0.009358   -0.164473
C     -2.163849   -0.319350   -1.160545
N     -1.543063   -0.685809   -2.256607
C     -0.114596   -0.622993   -2.053735
N     -3.459492   -0.129040   -0.600318
C     -3.309665    0.068920    0.822077
C     -1.861061   -0.180532    1.109510
C      2.131460    1.305266   -0.223841
C      3.326582    1.270711    0.494493
C      3.559922    0.170952    1.290009
C      2.658303   -0.861424    1.382626
H      0.749168   -1.596615    0.708983
H     -0.232542    1.395320   -1.342047
H      0.436983   -0.300319   -2.956487
H      0.204166   -1.617554   -1.686819
H     -4.391086   -0.124128   -1.085775
H     -3.544353    1.107105    1.143684
H     -3.982066   -0.640813    1.379935
H     -1.471604    0.489271    1.903996
H     -1.771418   -1.256276    1.440176
H      1.939307    2.148144   -0.841306
H      4.045939    2.080235    0.429076
H      4.471214    0.106780    1.860428
H      2.883452   -1.696831    2.014873
