46

C      2.236204   -0.566705   -0.475857
N      2.752532    0.775669   -0.545115
C      4.111265    0.683655   -1.092735
C      5.040971    0.024823   -0.085641
C      4.536055   -1.401823    0.110584
C      3.102724   -1.316721    0.543825
C      0.830315   -0.648348    0.021552
O     -0.106331    0.019236   -0.721443
C     -1.180959    0.178719    0.136340
O     -0.691863    0.185155    1.442683
C      0.674132   -0.010336    1.384618
C     -1.874521    1.489291   -0.044222
C     -2.085188    2.382387    0.988310
C     -2.720743    3.587508    0.838923
C     -3.182734    3.940719   -0.415361
C     -2.992637    3.077048   -1.473474
C     -2.353220    1.876177   -1.298112
C     -2.140722   -0.957922    0.055020
C     -3.104374   -1.117032    1.008780
C     -4.023681   -2.163761    0.973073
C     -3.981259   -3.084640   -0.049573
C     -3.003038   -2.924523   -1.019350
C     -2.099555   -1.883033   -0.970365
H      2.320047   -1.034236   -1.457199
H      2.846294    1.251474    0.364796
H      4.467632    1.733589   -1.187626
H      4.154282    0.111198   -2.020112
H      6.032366   -0.034810   -0.529413
H      4.990714    0.514347    0.900843
H      4.682987   -2.025626   -0.782239
H      5.092015   -1.875198    0.950923
H      2.627562   -2.285518    0.727207
H      3.074228   -0.677992    1.462748
H      0.578642   -1.721303    0.136734
H      1.050313   -0.735382    2.134666
H      1.165525    0.957192    1.478844
H     -1.715468    2.087048    1.962545
H     -2.836446    4.219850    1.713929
H     -3.680601    4.888913   -0.524082
H     -3.364056    3.369397   -2.459980
H     -2.199618    1.193550   -2.118073
H     -3.189023   -0.435061    1.827745
H     -4.784332   -2.286750    1.729076
H     -4.695328   -3.890561   -0.070726
H     -2.992719   -3.666708   -1.815363
H     -1.368388   -1.802959   -1.737702
