21

N     -3.755635    0.548566    0.435295
C     -2.622103   -0.119918   -0.131525
N     -2.371489   -0.270597   -1.378323
C     -1.157644   -0.985369   -1.566227
O     -0.674224   -1.343522   -2.668045
C     -0.589021   -1.218259   -0.229728
O     -1.626770   -0.703727    0.609922
C      0.610544   -0.406439    0.039763
C      1.822389   -1.025942    0.208955
C      2.989620   -0.329432    0.464801
C      2.928151    1.038502    0.552214
C      1.723884    1.674809    0.385565
C      0.555648    0.963404    0.128471
H     -3.739344    1.023696    1.355956
H     -4.655936    0.568364   -0.093902
H     -0.431518   -2.293206   -0.064956
H      1.900444   -2.104993    0.145223
H      3.922280   -0.882164    0.589564
H      3.833862    1.591782    0.751656
H      1.692126    2.744508    0.456788
H     -0.355265    1.529936    0.008533
