62

C     -1.626060    2.117390    0.071896
C     -1.422280    0.723795    0.659618
C      0.024472    0.496438    0.751927
C      0.498548   -0.844249    0.359702
C     -0.213420   -1.623791   -0.434271
O     -1.431394   -1.145238   -0.895168
C     -2.219880   -0.231193   -0.165253
O     -3.071057   -1.005553    0.654151
C     -4.423361   -1.025636    0.460226
O     -4.918887   -0.345076   -0.460072
C     -5.347483   -1.843291    1.319800
C     -5.659181   -3.110765    0.592671
C     -6.323060   -2.881401   -0.726849
C     -4.455091   -3.997091    0.498956
C      1.799928   -1.361757    0.850569
O      2.878636   -0.514136    0.434199
C      4.180094   -0.830204    0.794528
O      4.328432   -1.876831    1.486889
C      5.346281    0.002369    0.398162
C      6.073937   -0.668485   -0.730432
C      7.264225    0.086586   -1.204466
C      6.403241   -2.080018   -0.291453
C      0.728497    1.551012   -0.089095
C     -0.341237    2.498916   -0.578100
O     -0.037970    3.844618   -0.196656
C      0.144378    4.852042   -1.105354
O      0.043030    4.593637   -2.329548
C      0.463486    6.264122   -0.692360
O     -2.776290    2.352975   -0.672953
C     -2.567967    3.005581    0.595080
H     -1.894494    0.776947    1.680849
H      0.355266    0.664062    1.801796
H      0.085197   -2.608331   -0.750715
H     -2.864366    0.284744   -0.905102
H     -6.261448   -1.226236    1.461068
H     -4.852401   -2.041457    2.281884
H     -6.408682   -3.668942    1.228932
H     -5.707325   -2.305800   -1.446759
H     -7.309195   -2.384635   -0.567616
H     -6.465827   -3.894096   -1.205127
H     -3.688137   -3.632007   -0.208414
H     -3.990283   -4.039411    1.509856
H     -4.782658   -5.047513    0.278739
H      1.802582   -1.480037    1.949898
H      2.034590   -2.354293    0.421612
H      5.075097    1.043282    0.195934
H      6.031441    0.019678    1.276346
H      5.349568   -0.752333   -1.587156
H      6.923708    0.823666   -1.982181
H      7.785490    0.624360   -0.390247
H      7.932354   -0.628530   -1.741422
H      7.242804   -2.490271   -0.907729
H      6.652196   -2.158238    0.779483
H      5.516139   -2.723450   -0.501974
H      1.454846    2.138583    0.498382
H      1.248323    1.045955   -0.924509
H     -0.407922    2.382821   -1.669273
H     -0.258571    6.913057   -1.228697
H      0.303359    6.401043    0.389238
H      1.494897    6.536135   -0.983194
H     -3.270189    2.674979    1.412917
H     -2.468929    4.101502    0.476836
