83

C      0.249179   -4.656695    1.125839
C      0.171870   -3.328411    0.851453
C      0.458107   -2.216538    1.822122
C      1.506873   -1.394496    1.226493
N      1.387599   -0.124026    0.654022
C      0.095241    0.509371    0.750671
O      0.021992    1.637202    0.228942
N     -0.958461   -0.167648    1.407468
C     -0.796595   -1.437313    1.976807
O     -1.770009   -1.961578    2.665752
C     -2.275045    0.454312    1.495697
C     -3.197988    0.078093    0.359166
C     -2.841530    0.628531   -0.968064
O     -2.687645    1.933599   -1.067812
C     -3.528180    2.928339   -0.932044
C     -4.246288    3.211476    0.346311
C     -5.088798    4.498547    0.062767
C     -6.046721    4.211595   -1.072765
O     -3.358864   -1.349011    0.325411
C     -4.567319   -1.932330    0.620584
N     -4.750285   -3.365730    0.592184
O     -5.517882   -1.167094    0.919237
C      2.533638    0.507504    0.035040
C      2.712889    0.278168   -1.401762
C      4.065353    0.574611   -1.986738
O      4.281601    1.849469   -2.300376
C      4.269489    2.870538   -1.436015
C      5.315967    2.628160   -0.340566
C      6.683665    2.526813   -1.002903
C      7.692454    2.288883    0.095216
O      1.665583    0.726073   -2.184429
C      0.870021   -0.114568   -2.920404
N     -0.224489    0.383507   -3.722825
O      1.094627   -1.357865   -2.900656
O      2.685601   -1.934672    1.244268
C      0.958895   -2.704121    3.150537
C      0.067389   -3.558675    3.952227
C     -0.250310   -3.001028   -0.444975
C     -0.569135   -3.936076   -1.388492
C     -0.479630   -5.274156   -1.074206
C     -0.069464   -5.641588    0.186542
H      0.575615   -5.018061    2.061840
H     -2.739050    0.137699    2.437009
H     -2.152241    1.537096    1.492455
H     -4.193452    0.444377    0.648276
H     -1.905939    0.128988   -1.386517
H     -3.704788    0.331297   -1.657398
H     -3.077816    3.934321   -1.273063
H     -4.376053    2.834290   -1.714378
H     -3.537754    3.419791    1.149258
H     -5.026524    2.483747    0.610723
H     -5.666817    4.656613    0.995685
H     -4.428467    5.335196   -0.175189
H     -5.597783    4.430176   -2.065315
H     -6.295850    3.130293   -1.056864
H     -7.006611    4.755804   -0.944596
H     -5.003343   -3.884759    1.460391
H     -4.639954   -3.929278   -0.276006
H      3.434022    0.035163    0.553905
H      2.596248    1.573881    0.383754
H      2.645749   -0.892606   -1.501756
H      4.194878   -0.038578   -2.943974
H      4.883017    0.157407   -1.328493
H      3.307269    3.176540   -0.987934
H      4.662407    3.809073   -1.994808
H      5.139871    1.673616    0.162870
H      5.288425    3.503583    0.317375
H      6.916016    3.453938   -1.548942
H      6.724346    1.658688   -1.676776
H      7.351594    1.416308    0.688796
H      8.693374    2.109038   -0.346060
H      7.686446    3.179012    0.762782
H     -0.811689    1.110265   -3.287077
H     -0.349566   -0.016600   -4.676148
H      1.326977   -1.849782    3.761114
H      1.908197   -3.277911    2.914436
H     -0.858489   -3.919717    3.487219
H      0.624880   -4.443912    4.325377
H     -0.184949   -3.012096    4.929679
H     -0.327103   -1.947794   -0.684800
H     -0.894245   -3.613281   -2.389740
H     -0.741304   -5.984430   -1.849138
H     -0.002936   -6.688563    0.422244
