70

C     -2.596337   -0.720427    0.132036
C     -2.695237    0.714354   -0.288787
C     -3.996413    1.314787    0.263584
C     -5.081138    0.508742   -0.338028
C     -6.011145    0.975276   -1.125665
C     -6.059957    2.382200   -1.495863
O     -6.942549    2.843004   -2.246469
C     -5.015337    3.217855   -0.936049
C     -4.092917    2.722115   -0.146167
C     -5.107900   -0.978411   -0.045266
C     -3.748319   -1.561281   -0.371012
F     -6.022183   -1.546763   -0.896571
C     -4.035977    1.196889    1.788112
C     -1.508142    1.541698    0.008841
C     -0.186609    0.859250    0.002546
C     -0.188242   -0.599724    0.187508
C     -1.352780   -1.241574   -0.546227
C     -1.052172   -2.684915   -0.339300
C      0.485491   -2.731300   -0.433955
C      0.834735   -3.543223   -1.673266
C      0.923595   -1.310397   -0.598117
C      2.257913   -0.981263   -0.107054
C      3.508092   -1.566673   -0.672435
O      4.633921   -1.036415   -0.011636
C      4.854743    0.332618   -0.083977
C      5.996788    0.996637    0.570040
C      5.928302    2.476881    0.287480
C      5.977221    0.821190    2.076356
C      7.271330    0.433896   -0.018164
O      4.039947    1.024327   -0.737338
O      2.332674   -0.169724    0.828597
C     -0.081697   -1.041612    1.605485
O     -1.695548    2.170568    1.241106
F     -2.916406    0.679021   -1.678486
H     -2.515755   -0.845614    1.209840
H     -6.802470    0.338332   -1.549908
H     -4.979484    4.286611   -1.166022
H     -3.318467    3.447338    0.243724
H     -5.428718   -1.175464    0.993164
H     -3.686522   -2.539917    0.159850
H     -3.610095   -1.732669   -1.436873
H     -3.173393    0.718897    2.228137
H     -4.175620    2.234271    2.198991
H     -4.929587    0.599464    2.037016
H     -1.465793    2.374639   -0.740294
H      0.368539    1.083458   -0.957460
H      0.459226    1.309601    0.796464
H     -1.282755   -0.960562   -1.596496
H     -1.514493   -3.252288   -1.179969
H     -1.420540   -3.124431    0.583794
H      0.920677   -3.231630    0.437147
H      1.742790   -4.156804   -1.514420
H     -0.008983   -4.233832   -1.878363
H      0.926666   -2.860399   -2.537175
H      0.789126   -0.966146   -1.656640
H      3.585139   -1.207934   -1.740428
H      3.487595   -2.669101   -0.665966
H      5.202042    2.711953   -0.530644
H      5.581576    3.062264    1.166661
H      6.909131    2.869616   -0.078901
H      6.979223    1.131668    2.440741
H      5.678643   -0.182377    2.389912
H      5.268087    1.599131    2.472942
H      7.090476    0.284163   -1.102641
H      8.143038    1.085534    0.190567
H      7.451020   -0.577941    0.422027
H      0.851046   -1.650659    1.758550
H     -0.002420   -0.198990    2.328510
H     -0.891137   -1.715023    1.957872
H     -0.885557    2.647235    1.544718
