44

C      1.261217   -2.331963    0.242478
C      1.929678   -3.509589    0.532576
C      3.283030   -3.481451    0.809827
C      3.945429   -2.285481    0.793420
C      3.229708   -1.119770    0.494943
C      1.888123   -1.104463    0.214894
N      1.066884   -0.006048   -0.090954
C      1.671469    1.307379   -0.126981
C      2.956907    1.628021    0.099225
C      3.458036    2.940964    0.053493
C      2.615964    3.972310   -0.234651
C      1.300891    3.719590   -0.474445
C      0.855099    2.415796   -0.418311
S      4.143796    0.379067    0.481562
C     -0.305943   -0.012385   -0.365224
C     -1.407153   -0.815650   -0.581522
C     -2.572067    0.266642   -0.837428
N     -2.646704    0.932123    0.424956
C     -4.007441    1.476856    0.547060
C     -2.529964   -0.106400    1.431575
C     -2.255091   -1.356978    0.582977
C     -1.606543   -1.598697   -1.866180
H      0.246829   -2.405123    0.039593
H      1.399325   -4.454715    0.543991
H      3.836805   -4.389710    1.041612
H      5.009712   -2.200498    1.003350
H      4.511966    3.090493    0.251685
H      3.005150    4.992527   -0.270334
H      0.655525    4.554886   -0.700319
H     -0.198722    2.326282   -0.616819
H     -0.687791    0.747162    0.404155
H     -0.317469    0.599222   -1.356395
H     -2.248038    0.870498   -1.682098
H     -3.467216   -0.306875   -1.049463
H     -4.218390    2.189629   -0.278309
H     -4.737168    0.632929    0.415757
H     -4.166374    1.926090    1.553238
H     -3.466016   -0.253972    2.006995
H     -1.654047    0.050148    2.090940
H     -3.239170   -1.674822    0.187172
H     -1.764580   -2.058557    1.226409
H     -1.419294   -2.689684   -1.635608
H     -0.793769   -1.294357   -2.542894
H     -2.562593   -1.561427   -2.345950
