29

C     -3.114164    0.807239    0.076271
N     -1.629002    0.762517   -0.068973
C     -1.264343   -0.461215   -0.719542
C     -1.495070   -1.719782    0.027183
C      0.013465   -0.415694   -1.490362
C      1.227892   -0.076465   -0.741483
C      1.936329   -1.054151   -0.063815
C      3.092140   -0.774045    0.630037
C      3.605322    0.508420    0.683707
C      2.906540    1.488025    0.011246
C      1.749566    1.208319   -0.683404
C     -1.125125    0.848263    1.295595
H     -3.541891    1.050098   -0.903893
H     -3.328928    1.571414    0.844400
H     -3.415665   -0.209572    0.367424
H     -2.066977   -0.526011   -1.578818
H     -0.940408   -1.800149    0.981272
H     -1.059684   -2.547803   -0.615218
H     -2.547269   -1.993670    0.139625
H      0.097439   -1.419238   -1.995900
H     -0.098994    0.288805   -2.376306
H      1.555719   -2.059567   -0.090649
H      3.640654   -1.544256    1.159169
H      4.514785    0.742374    1.225372
H      3.267051    2.498546    0.025845
H      1.201362    1.970547   -1.207964
H     -0.110634    1.244282    1.397972
H     -1.299891   -0.043658    1.898248
H     -1.770217    1.656426    1.772962
