51

C     -0.557347    0.531889    0.496676
C      0.506807   -0.039186   -0.356474
C      0.243021   -0.852031   -1.448661
C     -1.157648   -1.177930   -1.800297
C     -1.810496   -1.350642   -0.406981
C     -1.947519    0.027588    0.106854
C     -2.575972    1.005580   -0.847803
C     -3.017860    2.139686    0.057346
C     -1.840707    2.713403    0.716651
C     -0.534384    1.995092    0.648139
O     -2.168799    2.873711    2.087397
O     -2.753754   -0.003291    1.243029
N     -0.971198   -2.162341    0.399837
C     -0.563185   -1.667629    1.653770
C     -0.363902   -0.210921    1.838603
C     -1.592402   -3.472393    0.568376
C      1.242935   -1.403275   -2.200421
C      2.574342   -1.185596   -1.917346
C      2.869956   -0.391616   -0.849398
C      1.834377    0.168504   -0.087578
O      2.321444    0.962006    0.968802
C      2.698097    2.301306    0.717534
O      4.190467   -0.160856   -0.547365
C      5.261909   -0.697285   -1.277465
H     -1.257547   -2.101929   -2.388729
H     -1.588624   -0.357852   -2.364870
H     -2.796914   -1.803360   -0.595952
H     -3.411454    0.552204   -1.375819
H     -1.825082    1.478217   -1.536906
H     -3.766042    1.709970    0.789806
H     -3.568564    2.921738   -0.510978
H     -1.711518    3.780278    0.364703
H      0.036375    2.221555    1.587943
H      0.021871    2.463544   -0.181161
H     -1.451898    3.493944    2.432403
H     -3.434980   -0.708005    1.103663
H     -1.282323   -2.025849    2.430860
H      0.408259   -2.177669    1.927553
H     -1.133822    0.218666    2.511614
H      0.612602    0.039794    2.274456
H     -2.684473   -3.419373    0.462382
H     -1.218872   -4.198017   -0.188462
H     -1.361392   -3.859711    1.589973
H      1.012100   -2.044584   -3.063890
H      3.356774   -1.647132   -2.545532
H      3.803858    2.425902    0.836863
H      2.377429    2.631586   -0.299756
H      2.248726    3.010051    1.438715
H      5.426257   -1.785840   -1.032120
H      6.204249   -0.169184   -1.040689
H      5.096822   -0.592717   -2.389293
