40

C     -0.318459   -1.869376   -1.254249
C     -0.982779   -2.977274   -1.790257
C     -2.310550   -3.165192   -1.588246
C     -3.018160   -2.240074   -0.836180
C     -2.343460   -1.164240   -0.323066
C     -1.000826   -0.940244   -0.506095
O     -0.388498    0.130000    0.018642
C      0.905161    0.586817   -0.004057
C      1.089903    1.913641   -0.641020
C      0.369027    3.068370   -0.519637
C      0.780058    4.138735   -1.228541
C      1.893864    3.973841   -2.015008
S      2.314805    2.344960   -1.732901
C      1.574810    0.629023    1.354781
C      3.001296    1.148528    1.226562
N      3.712418    0.238857    0.347275
C      3.900590   -1.050888    0.952194
C     -3.099023   -0.255777    0.430167
C     -4.443077   -0.457034    0.628383
C     -5.096091   -1.542537    0.104158
C     -4.369884   -2.467505   -0.652668
H      0.736841   -1.810822   -1.470655
H     -0.437300   -3.681702   -2.366345
H     -2.850561   -4.030418   -2.000727
H      1.507094   -0.145880   -0.597772
H     -0.531237    3.116804    0.147437
H      0.243823    5.122695   -1.184251
H      2.381806    4.721766   -2.662802
H      1.047838    1.331496    2.037392
H      1.630717   -0.346047    1.848634
H      2.988129    2.164850    0.817722
H      3.482052    1.190106    2.214494
H      4.583096    0.662073   -0.040319
H      4.090013   -0.892023    2.047198
H      4.688812   -1.637833    0.476634
H      2.918932   -1.600299    0.853807
H     -2.598883    0.602814    0.849933
H     -5.028047    0.239085    1.206320
H     -6.163528   -1.716859    0.252235
H     -4.860723   -3.332436   -1.077284
