38

C     -2.958106    1.565148    0.418301
N     -3.810508    0.648900   -0.260988
C     -4.758010   -0.224070    0.328126
C     -5.571015   -0.879302   -0.735517
C     -4.610000   -0.854019   -1.900858
C     -3.870456    0.436290   -1.688408
O     -4.938960   -0.458266    1.554233
C     -1.648774    1.000363    0.811801
N     -1.227591   -0.325615    0.561779
N      0.046960   -0.796468    0.970518
C      1.248862   -0.288687    0.416770
C      2.534397   -0.845818    0.909965
N      3.675898   -0.254431    0.275731
C      4.363183    0.903641    0.744455
C      5.711073    1.002670    0.104345
C      5.807155   -0.313744   -0.630794
C      4.381344   -0.661275   -0.934893
O      3.873205    1.713316    1.583822
O      1.164119    0.595257   -0.451745
O     -0.838627    1.749786    1.416889
H     -3.433258    1.995992    1.348769
H     -2.727133    2.483489   -0.199024
H     -5.813526   -1.900371   -0.428164
H     -6.503584   -0.346377   -0.958990
H     -5.209100   -0.826539   -2.843603
H     -3.959467   -1.749383   -1.895193
H     -2.865010    0.429080   -2.157001
H     -4.515783    1.253364   -2.103708
H     -1.898949   -0.953216    0.058069
H      0.020782   -1.542081    1.706940
H      2.600486   -1.945455    0.798600
H      2.591660   -0.651599    2.021421
H      5.735314    1.839516   -0.593203
H      6.515678    1.103781    0.876793
H      6.431301   -0.156655   -1.530235
H      6.252116   -1.055347    0.041722
H      4.209823   -1.712520   -1.189816
H      3.994499    0.020647   -1.740250
