23

C      1.925239    1.092914   -0.544014
C      1.121808    0.059958   -0.143634
N     -0.300398    0.172934   -0.080141
N     -1.263515   -0.703879   -0.567464
C     -2.445460   -0.290752   -0.346927
C     -3.748614   -0.965462   -0.722654
C     -2.410598    1.014735    0.344480
C     -0.964081    1.266863    0.522084
O     -0.418185    2.268758    1.101105
C      1.653168   -1.174803    0.214755
C      3.027965   -1.400022    0.176657
C      3.819160   -0.366651   -0.223501
C      3.302355    0.863521   -0.581269
H      1.494699    2.044712   -0.815574
H     -4.140953   -0.566014   -1.655531
H     -4.458801   -0.880127    0.131594
H     -3.599346   -2.061037   -0.864000
H     -2.984480    1.001825    1.292388
H     -2.771804    1.823456   -0.343280
H      0.973310   -1.977596    0.528682
H      3.378016   -2.384243    0.465450
H      4.901142   -0.527649   -0.260191
H      3.909373    1.688559   -0.897990
