28

C      1.226205    1.302014   -0.983037
C      2.447701    1.340314   -1.619081
C      3.448406    0.508651   -1.170924
C      3.181569   -0.323598   -0.106721
C      1.942160   -0.342774    0.516545
C      0.921015    0.488934    0.078258
C     -0.365702    0.425942    0.773688
C     -0.102031    0.038594    2.228147
N     -1.276306   -0.539551    0.208211
C     -1.158963   -1.875843    0.278045
C     -2.230379   -2.443756   -0.386118
N     -2.949745   -1.408408   -0.829103
C     -2.383518   -0.245873   -0.476311
C     -2.935775    1.113799   -0.815211
H      0.430538    1.961535   -1.337399
H      2.623017    2.022813   -2.470651
H      4.426863    0.482861   -1.616991
H      3.960659   -0.989907    0.263310
H      1.817096   -1.025101    1.343598
H     -0.825631    1.435943    0.775659
H      0.854502    0.464644    2.531756
H     -0.017011   -1.072140    2.339781
H     -0.932746    0.423398    2.851769
H     -0.375045   -2.474558    0.761886
H     -2.425815   -3.515623   -0.509284
H     -3.411464    1.032465   -1.800063
H     -3.749992    1.348774   -0.082497
H     -2.139607    1.866451   -0.747262
