45

C     -2.466227    0.656370   -1.803495
C     -1.955304    1.277897   -2.917183
Cl    -2.975685    2.364039   -3.843146
C     -0.637949    1.036217   -3.281478
C      0.201539    0.181415   -2.564583
C     -0.337909   -0.414097   -1.472283
C     -1.656713   -0.187958   -1.075315
C     -2.343585   -0.715205    0.085312
N     -2.189958   -1.941089    0.512226
C     -1.357869   -2.984521   -0.017487
C      0.077955   -2.510277   -0.168870
N      0.588248   -1.355644   -0.892457
C      1.970287   -1.146032   -1.035139
C      2.528367   -0.304647    0.086119
S      4.256845   -0.029028   -0.065450
C      4.758103    0.979898    1.335480
C      6.260992    1.247875    1.247542
O      4.648637    0.604135   -1.346033
O      4.978001   -1.356580    0.098229
O      0.982832   -3.165420    0.383075
C     -3.297360    0.082108    0.798304
C     -4.143245   -0.576411    1.711571
C     -5.007638    0.038497    2.561113
C     -5.066171    1.417916    2.531462
C     -4.271708    2.126037    1.671483
C     -3.389981    1.435413    0.812921
F     -2.527088    2.201268    0.091405
H     -3.493811    0.765788   -1.507591
H     -0.210723    1.510124   -4.147550
H      1.185653    0.017659   -2.855134
H     -1.380492   -3.893668    0.609632
H     -1.689170   -3.264665   -1.032477
H      2.423882   -2.182688   -0.755747
H      2.446518   -1.044817   -1.993864
H      2.368100   -0.851074    1.040841
H      1.991896    0.656829    0.219628
H      4.499398    0.481856    2.285788
H      4.267334    1.974553    1.307132
H      6.735881    0.294773    0.957884
H      6.390569    2.015746    0.437815
H      6.591151    1.628978    2.214996
H     -4.078100   -1.666570    1.711661
H     -5.629563   -0.524127    3.237842
H     -5.759596    1.928144    3.208769
H     -4.286344    3.190986    1.617052
