50

C      4.307007    0.423512   -1.393933
C      3.473066    0.249466   -0.309854
C      3.684539    1.113113    0.770085
C      4.655903    2.077949    0.767307
C      5.474274    2.227459   -0.331718
C      5.290725    1.390101   -1.414126
C      4.605174    2.758798    1.976386
C      3.576911    2.157823    2.674311
O      3.075441    1.205714    1.925147
N      2.454661   -0.742722   -0.275181
C      2.547861   -1.737419    0.781986
C      1.747715   -2.962675    0.499513
N      0.449055   -2.677804   -0.099432
C     -0.282335   -1.723587    0.716189
C     -1.628824   -1.435306    0.155890
C     -2.308584   -2.209920   -0.756949
C     -3.501006   -1.577362   -1.000863
C     -3.501635   -0.429294   -0.218452
N     -2.357531   -0.355006    0.479959
C     -4.591249    0.537297   -0.176415
C     -5.730814    0.380608   -0.928450
C     -6.767184    1.306300   -0.884198
C     -6.667550    2.409177   -0.075954
C     -5.519509    2.563976    0.679594
C     -4.477597    1.645243    0.643224
F     -7.656730    3.354167    0.008175
C      0.762083   -2.114953   -1.405026
C      1.398455   -0.731887   -1.255097
H      4.194565   -0.213297   -2.261777
H      6.232199    3.001861   -0.298214
H      5.945165    1.526365   -2.265396
H      5.222175    3.576596    2.313480
H      3.277135    2.464421    3.674332
H      2.241960   -1.336100    1.766440
H      3.633276   -2.050414    0.793345
H      2.289567   -3.631351   -0.185348
H      1.572298   -3.504534    1.454839
H      0.330530   -0.811653    0.795767
H     -0.418045   -2.215882    1.715830
H     -2.000604   -3.140201   -1.213102
H     -4.316111   -1.858217   -1.653907
H     -2.096739    0.404209    1.145310
H     -5.812857   -0.483151   -1.563726
H     -7.666500    1.195134   -1.469177
H     -5.405867    3.418153    1.326221
H     -3.609023    1.827524    1.259257
H     -0.073955   -2.057540   -2.094130
H      1.548112   -2.757047   -1.851682
H      0.614695    0.026641   -1.044176
H      1.785701   -0.484285   -2.281267
