32

C      0.063877    2.152797    0.203627
C      0.109083    0.786428    0.017658
C      1.338840    0.202827   -0.289111
C      2.477935    0.977151   -0.402469
C      2.413967    2.342729   -0.213078
C      1.204518    2.948740    0.092788
O      3.662961    0.311316   -0.711519
C      3.772803   -1.023038   -0.224786
C      2.587293   -1.869890   -0.647698
O      1.365684   -1.175002   -0.473124
N     -1.075993    0.028067    0.141737
C     -1.540500   -0.733760   -0.985868
C     -2.940784   -1.222407   -0.855862
N     -3.676305   -0.223297   -0.071715
C     -3.204047   -0.425163    1.307877
C     -1.785312    0.034764    1.382373
H     -0.863301    2.614913    0.437769
H      3.310453    2.944262   -0.303315
H      1.144816    4.027252    0.244085
H      3.854734   -0.986299    0.883367
H      4.672396   -1.473869   -0.690643
H      2.633275   -2.805718   -0.044136
H      2.710469   -2.074605   -1.739610
H     -1.483122   -0.121913   -1.934706
H     -0.835841   -1.592686   -1.197693
H     -3.404315   -1.273095   -1.848399
H     -3.018148   -2.205426   -0.339700
H     -3.358700    0.721227   -0.357515
H     -3.306262   -1.528811    1.475304
H     -3.809308    0.155010    2.017959
H     -1.779890    1.082569    1.752935
H     -1.241278   -0.595072    2.117183
