48

C     -3.037465   -0.508055    0.035203
C     -4.300421   -0.004510    0.326083
C     -4.376226    1.274186    0.807131
C     -3.241617    2.002825    0.983161
C     -2.005882    1.494080    0.693509
C     -1.882718    0.194996    0.202359
C     -0.532911   -0.355557   -0.078443
C      0.521343    0.729171    0.136826
N      1.807681    0.123033   -0.160450
C      3.037220    0.866475   -0.017805
C      4.284846    0.083780   -0.354697
C      5.515720    0.842869    0.047834
C      6.763775    0.076873   -0.289898
O      6.738044   -1.149008    0.372257
O      3.030876    2.035183    0.357219
C     -0.492293   -0.822757   -1.483484
C     -0.782546    0.358104   -2.413461
C     -0.209662   -1.417861    0.944817
C     -1.121070   -2.591124    0.983447
O     -5.380998   -0.836617    0.105115
C     -6.717994   -0.468453    0.359366
H     -2.960091   -1.519466   -0.368724
H     -5.338331    1.673852    1.035084
H     -3.334173    3.015792    1.362070
H     -1.153165    2.111017    0.850550
H      0.391495    1.571792   -0.565136
H      0.567659    1.073485    1.175048
H      1.902636   -0.856169   -0.483443
H      4.170468   -0.872152    0.181670
H      4.280358   -0.100852   -1.444340
H      5.531361    1.840477   -0.435718
H      5.459046    1.045674    1.154300
H      6.916946    0.004072   -1.364414
H      7.667352    0.615325    0.128535
H      6.261888   -1.075895    1.242384
H     -1.294349   -1.592292   -1.623553
H      0.433755   -1.274297   -1.836863
H      0.157840    0.955389   -2.567470
H     -1.100727   -0.023222   -3.408212
H     -1.595783    0.999526   -2.060362
H     -0.292288   -0.931544    1.970479
H      0.834447   -1.764980    0.911207
H     -0.550154   -3.388556    1.569377
H     -2.039860   -2.458355    1.588698
H     -1.282835   -3.081296    0.004781
H     -6.923492   -0.681049    1.433720
H     -6.925597    0.585505    0.207198
H     -7.402108   -1.118926   -0.212957
