35

N      4.236587   -1.910206    0.337936
C      5.295328   -0.994366    0.125003
N      6.632278   -1.363648    0.368863
N      5.045103    0.186831   -0.295436
C      3.680418    0.559739   -0.544220
S      3.006229    2.019545   -1.103449
C      1.335912    1.549567   -1.095285
C      1.427453    0.269797   -0.650396
C      0.208901   -0.622723   -0.458487
S     -0.440195   -0.445915    1.194029
C     -1.329136    1.067232    1.518270
C     -2.684265    1.081917    0.901287
C     -2.793800    0.939254   -0.536699
N     -2.197149    1.876584   -1.460157
N     -3.461872   -0.030103   -1.046496
S     -4.248722   -1.185467   -0.078403
N     -5.482333   -0.348966    0.843026
O     -3.356254   -1.956916    0.834144
O     -4.964142   -2.213523   -0.950986
N      2.615789   -0.196309   -0.383235
H      3.584387   -1.826735    1.159629
H      4.033381   -2.723748   -0.301115
H      7.040606   -1.205923    1.302973
H      7.207108   -1.789412   -0.374320
H      0.465981    2.161880   -1.383741
H      0.462851   -1.686652   -0.624393
H     -0.540466   -0.371240   -1.240451
H     -0.737387    1.983759    1.307123
H     -1.503935    1.102153    2.635712
H     -3.240810    2.033234    1.170112
H     -3.292794    0.277696    1.395104
H     -2.217714    2.891745   -1.304181
H     -1.736148    1.487558   -2.305530
H     -6.227209   -1.031791    1.106512
H     -5.823980    0.415152    0.236141
