59

C     -4.392823   -0.344062    0.622971
C     -3.251385    0.539267    0.860846
C     -3.531696    1.787006    0.382352
N     -4.830774    1.806162   -0.183102
C     -5.440385    2.963358   -0.826872
C     -5.425209    0.509185   -0.011460
N     -5.737388   -0.106299   -1.301613
C     -4.926073    0.491198   -2.349966
C     -5.429261   -1.504185   -1.129083
C     -4.111963   -1.465247   -0.343934
C     -2.592331    2.831756    0.487333
C     -1.377077    2.596656    1.078129
C     -1.083077    1.340660    1.564873
C     -1.996592    0.346848    1.456397
O      0.179872    1.144706    2.165054
C      1.269173    0.745680    1.393461
N      2.557849    0.531861    1.928774
C      3.709901    0.109042    1.114688
C      3.453179   -1.210469    0.461017
C      4.639965   -1.607317   -0.364419
C      5.883208   -1.744653    0.459218
C      7.044640   -2.162738   -0.435910
C      7.310823   -1.154805   -1.521979
C      7.651541    0.184840   -0.955443
O      1.060012    0.577584    0.169815
C     -4.922669   -0.886895    1.949368
H     -6.514680    2.844197   -0.961791
H     -4.954453    3.219207   -1.785286
H     -5.255070    3.823259   -0.135823
H     -6.348692    0.607360    0.608533
H     -5.510187    1.202425   -2.962028
H     -4.031152    0.953786   -1.883489
H     -4.519494   -0.340345   -2.989552
H     -5.276404   -2.036826   -2.070366
H     -6.175434   -1.938756   -0.455304
H     -4.012639   -2.448377    0.145509
H     -3.253614   -1.276524   -0.990478
H     -2.834881    3.826117    0.097745
H     -0.635989    3.396852    1.167817
H     -1.799331   -0.638880    1.824025
H      2.661665    0.692427    2.964927
H      3.862154    0.862666    0.287816
H      4.589696    0.167587    1.748227
H      2.600987   -1.104840   -0.264472
H      3.165701   -1.988000    1.202411
H      4.745693   -0.797480   -1.145184
H      4.430013   -2.529394   -0.961904
H      6.142981   -0.810703    0.969440
H      5.741708   -2.588071    1.171447
H      7.952185   -2.207725    0.209775
H      6.792002   -3.132283   -0.880642
H      6.455795   -1.060103   -2.213176
H      8.153568   -1.533369   -2.137093
H      7.754117    0.130071    0.142449
H      6.832332    0.913261   -1.191700
H      8.614666    0.526086   -1.357617
H     -5.874969   -1.423678    1.803995
H     -4.124741   -1.575155    2.334428
H     -5.084996   -0.053933    2.648837
