46

C      2.773886    0.983237    1.005388
C      4.134176    1.114892    0.868161
C      4.871228    2.197453    1.507517
C      6.326764    2.323237    1.349944
O      4.237400    3.023001    2.197482
C      4.817826    0.188271    0.098687
C      4.168536   -0.839267   -0.516535
C      2.781606   -0.942695   -0.354917
C      2.068851   -0.062355    0.386892
C      0.627894   -0.134420    0.582123
N     -0.265557   -1.079105    0.072082
C     -1.680918   -1.161236    0.209903
C     -2.511068   -0.174701   -0.482589
N     -3.940693   -0.516862   -0.178190
C     -4.199216    0.017921    1.103270
C     -3.159592    1.104157    1.343179
C     -2.486105    1.227661   -0.026255
C     -4.751474   -0.115981   -1.260069
C     -6.222146   -0.420096   -1.062163
O      0.100043    0.783400    1.315148
O      2.181604   -1.996466   -0.997337
C      2.925716   -2.905440   -1.764628
H      2.229431    1.695693    1.600192
H      6.873327    1.434197    1.782511
H      6.753021    3.212296    1.814218
H      6.629581    2.333434    0.261734
H      5.894719    0.327962    0.015088
H      4.703860   -1.554160   -1.111533
H      0.162906   -1.872723   -0.516385
H     -1.911245   -1.065041    1.330274
H     -2.033006   -2.226130    0.007446
H     -2.410294   -0.266117   -1.603380
H     -5.210424    0.398780    1.268750
H     -4.061879   -0.813421    1.855621
H     -2.471854    0.792360    2.126315
H     -3.702726    2.045704    1.537892
H     -3.211209    1.862724   -0.673320
H     -1.581276    1.776494   -0.073192
H     -4.452685   -0.757986   -2.144799
H     -4.682901    0.908643   -1.612759
H     -6.449925   -1.504723   -1.176117
H     -6.635369    0.019624   -0.140407
H     -6.759717    0.083693   -1.912213
H      3.721335   -3.343935   -1.097186
H      3.480612   -2.386863   -2.571806
H      2.326953   -3.715113   -2.194955
