41

C      0.995340    2.405238   -0.170091
N      2.310794    2.487532    0.068580
C      2.832241    1.254817   -0.043508
C      1.774394    0.404573   -0.364943
N      0.649602    1.117514   -0.440078
C     -0.734766    0.688211   -0.706647
C     -1.383621    0.396590    0.604510
N     -2.765554   -0.005499    0.571486
C     -2.848579   -1.304766   -0.030293
C     -4.221789   -1.922825   -0.027708
C     -3.498128    1.042980   -0.069493
C     -4.986077    0.942435   -0.029257
C      2.014243   -0.962369   -0.549371
N      3.284003   -1.360426   -0.397628
C      3.577239   -2.785446   -0.595747
C      4.292535   -0.507319   -0.083173
N      4.090307    0.796565    0.098813
C      5.202862    1.679154    0.454653
O      5.469921   -0.954220    0.043947
O      1.082695   -1.742484   -0.837670
H      0.277293    3.212685   -0.166688
H     -1.188275    1.467460   -1.311363
H     -0.627908   -0.225555   -1.342760
H     -0.813989   -0.376898    1.132353
H     -1.334976    1.338534    1.219830
H     -2.397349   -1.332368   -1.059878
H     -2.193246   -1.984062    0.580764
H     -4.865268   -1.479104    0.731167
H     -4.663881   -1.936695   -1.047952
H     -4.170818   -3.013126    0.252873
H     -3.213147    1.992056    0.428035
H     -3.189808    1.178044   -1.137429
H     -5.352558    1.982433   -0.337050
H     -5.451509    0.276218   -0.758328
H     -5.338375    0.813089    1.016252
H      3.543529   -3.287992    0.386197
H      2.892447   -3.205009   -1.340144
H      4.606298   -2.813406   -1.023645
H      5.922821    1.094380    1.039854
H      4.810515    2.487082    1.123767
H      5.610541    2.141977   -0.446288
