37

C     -0.595621   -2.247023    1.539490
C     -1.709960   -3.006107    1.802226
C     -2.902865   -2.674551    1.213658
C     -2.972151   -1.583039    0.364733
C     -1.850057   -0.826974    0.106882
C     -0.636541   -1.142659    0.688368
C      0.659018   -0.480618    0.525499
C      0.656977    0.990914    0.502131
C     -0.216319    1.829872   -0.159882
N     -1.367942    1.493566   -0.968429
C     -1.745133    2.457414   -1.976751
C     -2.110253    0.296407   -0.804348
O     -3.115915    0.196241   -1.536589
C     -0.060203    3.201974   -0.094106
C      0.981821    3.721840    0.644339
C      1.861301    2.887818    1.311620
C      1.718111    1.523764    1.254415
O      1.242263   -1.004283   -0.639229
C      2.389788   -1.716814   -0.393613
C      2.947483   -2.239566   -1.683377
H      0.358301   -2.486933    1.990978
H     -1.643230   -3.871388    2.478866
H     -3.796584   -3.251749    1.400026
H     -3.888003   -1.272984   -0.129732
H      1.342195   -0.818635    1.359736
H     -2.476735    3.218451   -1.574903
H     -2.312554    1.937234   -2.787861
H     -0.878321    2.935325   -2.466220
H     -0.771333    3.825416   -0.633870
H      1.086620    4.807583    0.682847
H      2.680967    3.313396    1.892268
H      2.364143    0.812804    1.747926
H      3.160428   -1.071774    0.094979
H      2.236356   -2.585912    0.297839
H      4.063775   -2.084776   -1.706148
H      2.490234   -1.745736   -2.556500
H      2.809935   -3.338495   -1.787266
