8

C      0.667864    0.173040    0.173234
C     -0.765214   -0.097236   -0.129214
Cl     1.758449   -1.106103   -0.374844
H      0.990214    1.118362   -0.324855
H      0.816317    0.281321    1.272652
H     -1.055354    0.381120   -1.086036
H     -1.375621    0.406516    0.669775
H     -1.036656   -1.157017   -0.200712
