34

O      0.102602    0.710969   -1.439846
C     -0.167420    0.339186   -0.068812
C      1.139765   -0.183124    0.404901
N      1.773030   -1.241729   -0.276697
C      1.790458   -2.537814   -0.083252
N      2.526603   -3.145995   -1.039262
C      2.984537   -2.194206   -1.856324
N      2.519765   -1.037406   -1.382616
C     -0.428819    1.641579    0.712258
N      0.672031    2.557923    0.694330
C      1.679779    2.678652    1.571114
N      2.518697    3.664054    1.200472
C      2.030216    4.168539    0.075268
N      0.907781    3.495380   -0.231339
C     -1.353429   -0.493252   -0.064862
C     -1.457301   -1.711781    0.550123
C     -2.644387   -2.445693    0.605292
C     -3.748574   -1.888315    0.003604
F     -4.920727   -2.562682    0.031952
C     -3.664484   -0.650891   -0.624967
C     -2.501879    0.061009   -0.676898
F     -2.412543    1.268993   -1.310484
H      0.394148   -0.103340   -1.904911
H      1.858250    0.695739    0.357038
H      1.059181   -0.378125    1.499609
H      1.314790   -3.119170    0.732768
H      3.620095   -2.328132   -2.746624
H     -0.558645    1.370544    1.812660
H     -1.387533    2.104058    0.466046
H      1.830874    2.073686    2.477466
H      2.397447    4.979005   -0.558472
H     -0.653826   -2.177038    1.073180
H     -2.688995   -3.405558    1.098210
H     -4.531483   -0.205063   -1.100925
