26

C      1.525496   -1.105862    0.111342
C      0.839288    0.052000   -0.569268
N     -0.555502    0.024750   -0.183878
C     -1.044901    0.223066    1.117187
C     -2.518946   -0.086908    1.157932
C     -2.876755   -0.423817   -0.262196
C     -1.667516   -0.216511   -1.107751
O     -0.444011    0.596682    2.157446
C      1.460403    1.346135   -0.296670
N      0.792109    2.456623    0.276677
O      2.675080    1.476389   -0.594796
C      2.988306   -1.189334   -0.209596
H      1.411671   -1.097041    1.197654
H      1.053951   -2.035813   -0.271979
H      0.945111   -0.137937   -1.675039
H     -2.624078   -0.954139    1.824443
H     -3.021262    0.808911    1.545133
H     -3.713394    0.249622   -0.554253
H     -3.207290   -1.481265   -0.312180
H     -1.791548    0.620105   -1.824283
H     -1.434920   -1.118011   -1.707630
H      0.964740    2.781855    1.261646
H      0.081374    3.021469   -0.254213
H      3.332980   -2.205335    0.138505
H      3.216158   -1.140322   -1.286044
H      3.613454   -0.465314    0.321812
