54

C      6.020814   -0.574162    0.350829
C      7.200888   -1.207973    0.009435
C      7.542175   -1.298777   -1.322227
C      6.688300   -0.752597   -2.241957
C      5.509465   -0.118756   -1.909441
C      5.170846   -0.029392   -0.578979
N      3.990654    0.602662   -0.162478
C      3.728986    0.757427    1.256729
C      2.676726    1.861725    1.387065
N      1.425929    1.377858    0.823315
C      0.767954    0.592713    1.803738
C     -0.542919    0.013898    1.383523
C     -1.517120    1.112998    1.012633
N     -2.755350    0.449141    0.620343
C     -3.806746    0.095422    1.346712
N     -4.714584   -0.493150    0.545680
C     -4.222604   -0.508818   -0.708087
N     -3.010145    0.082363   -0.621276
C     -4.853554   -1.051839   -1.940331
C     -5.683357    0.038757   -2.629606
C     -6.004069   -1.024547    0.944411
C     -7.088008    0.026724    0.847577
O     -3.915304    0.289691    2.585849
C      1.615951    0.748896   -0.445682
C      2.974958    1.128829   -1.055385
Cl     8.251629   -1.888050    1.246091
H      5.817015   -0.542134    1.423509
H      8.467046   -1.795159   -1.595022
H      6.999563   -0.847677   -3.292878
H      4.889508    0.288776   -2.705027
H      4.642154    1.063154    1.811165
H      3.346081   -0.189043    1.645587
H      2.532114    2.053289    2.475142
H      3.004531    2.735222    0.821122
H      0.568597    1.250034    2.688364
H      1.386575   -0.246227    2.208307
H     -0.936520   -0.574798    2.253633
H     -0.455901   -0.713618    0.553855
H     -1.095317    1.664118    0.150705
H     -1.653752    1.816295    1.838392
H     -4.126220   -1.430532   -2.664082
H     -5.517476   -1.900948   -1.662606
H     -6.388881   -0.389031   -3.344163
H     -6.186783    0.686191   -1.861589
H     -4.935189    0.706287   -3.126620
H     -5.964208   -1.423443    1.984728
H     -6.216817   -1.896946    0.295856
H     -7.628258    0.150997    1.820114
H     -6.669935    0.981485    0.472820
H     -7.858912   -0.285955    0.095500
H      0.859735    1.165439   -1.149852
H      1.596048   -0.349071   -0.423440
H      3.061025    2.200956   -1.231118
H      3.012663    0.606209   -2.030887
