63

C     -4.239353    0.693106   -1.980915
C     -4.248920    2.085739   -2.104488
C     -3.303102    2.890142   -1.432657
C     -2.331113    2.294666   -0.623469
O     -1.226688    2.650684    0.202984
C     -0.426215    1.571268    0.031149
C     -1.428258    0.499576    0.364047
C     -0.821115   -0.843604    0.126325
C     -1.986900   -1.712408   -0.042617
N     -2.483964   -1.846559    1.338596
C     -2.845238   -0.649545    1.976322
C     -2.058016    0.584014    1.721141
C     -3.437701   -2.874671    1.483898
C     -3.098326   -1.326926   -0.926823
C     -3.279386    0.103214   -1.179898
C     -2.435959    0.929856   -0.588056
C      0.223440   -0.752754   -0.920739
C      1.378091    0.128984   -0.356386
C      0.796594    1.103983    0.629854
O      1.656387    2.089647    1.021718
C      1.960025    3.014316    0.055082
C      0.593870    0.115448    1.782884
C     -0.120863   -0.990899    1.444096
C      2.551197   -0.688203   -0.000840
O      2.330328   -1.705953    0.931427
C      3.687100    0.165871    0.499098
C      4.929742   -0.469724    0.945502
C      5.785424   -1.259199    0.039294
C      3.103329   -1.397837   -1.256614
O     -3.273079    4.253911   -1.523255
H     -4.936769    0.053940   -2.473874
H     -4.989126    2.573473   -2.723428
H     -0.240820    1.595677   -1.106283
H     -1.647216   -2.735338   -0.319048
H     -3.961538   -0.519064    1.840009
H     -2.766759   -0.840036    3.090902
H     -1.454665    0.929181    2.549503
H     -2.847933    1.411288    1.659209
H     -4.355107   -2.525846    2.015591
H     -3.736202   -3.403660    0.573070
H     -2.999129   -3.661785    2.165674
H     -2.942225   -1.818049   -1.931689
H     -4.056119   -1.735062   -0.556280
H     -0.220743   -0.293984   -1.824978
H      0.553604   -1.746457   -1.201834
H      1.628301    0.780760   -1.258214
H      1.046701    3.572400   -0.294415
H      2.479109    2.548157   -0.779774
H      2.629050    3.777336    0.511570
H      0.986342    0.292699    2.765469
H     -0.169392   -1.861328    2.058956
H      2.831804   -1.594714    1.759960
H      3.960184    0.900006   -0.320170
H      3.317846    0.811612    1.342914
H      4.816874   -1.080284    1.885105
H      5.593433    0.385309    1.323316
H      5.728370   -2.377780    0.234532
H      6.907083   -1.092201    0.300065
H      5.774518   -1.001952   -1.026069
H      2.307281   -1.910550   -1.838158
H      3.682576   -0.705176   -1.867763
H      3.742547   -2.210213   -0.894210
H     -2.613212    4.825500   -1.055520
