42

C     -3.788030    0.145886    0.712126
C     -2.614515   -0.281765    0.136345
C     -1.364552    0.515334    0.175372
O     -0.316602   -0.220000    0.728589
C      0.626565   -0.467534   -0.233226
C      2.049297   -0.561517    0.231338
C      2.882934   -1.054719   -0.939295
C      4.287508   -0.512201   -0.920372
C      4.785264   -0.603786    0.503266
C      3.922190    0.239363    1.377438
N      2.628294    0.570010    0.829398
C      0.418115    0.775770   -1.108712
O     -0.963574    0.819302   -1.146628
C     -1.527099    1.852070    0.845616
C     -2.505053    2.712762    0.115204
C     -2.655546   -1.497339   -0.514809
C     -3.796009   -2.267964   -0.605656
C     -4.961399   -1.831522   -0.032351
C     -4.941561   -0.628673    0.619818
H     -3.877496    1.080985    1.257132
H      0.400516   -1.337287   -0.883846
H      2.060495   -1.396928    0.994793
H      2.937085   -2.159490   -0.983411
H      2.388256   -0.736631   -1.913829
H      4.237119    0.562182   -1.188652
H      4.915919   -1.082724   -1.627783
H      5.876598   -0.306403    0.584195
H      4.766568   -1.694492    0.806464
H      3.716059   -0.376188    2.312812
H      4.498134    1.133272    1.695501
H      2.065909    0.981632    1.603139
H      0.891180    0.657138   -2.107801
H      0.769499    1.660348   -0.552903
H     -1.748035    1.764564    1.927742
H     -0.544206    2.389512    0.794390
H     -3.073522    2.203697   -0.680893
H     -1.959775    3.551495   -0.440267
H     -3.135453    3.276578    0.844678
H     -1.783621   -1.942871   -1.006400
H     -3.838200   -3.226120   -1.122542
H     -5.875634   -2.433922   -0.098867
H     -5.853623   -0.271822    1.071031
