56

C      5.869402   -1.788561   -0.006753
C      6.677285   -2.684838    0.685276
C      7.442501   -2.267328    1.757510
C      7.389959   -0.927832    2.133522
C      6.579497   -0.065647    1.427108
C      5.805116   -0.448836    0.355522
C      4.966699    0.512936   -0.353229
C      4.125718    0.149426   -1.500096
C      3.307124    1.294769   -2.026204
C      2.334001    1.890173   -1.094114
N      1.323895    1.025862   -0.585100
C      0.359014    0.566882   -1.505130
C     -0.591278   -0.419590   -0.846469
N     -1.087593    0.081764    0.412612
C     -2.460791    0.217650    0.702739
O     -3.419770   -0.128356   -0.226753
C     -4.790048   -0.000371    0.040728
C     -5.484918    0.938701   -0.924308
C     -6.917467    0.509878   -1.038744
C     -7.471054   -0.087912    0.229395
C     -6.772444   -1.406426    0.536837
C     -5.427629   -1.363716   -0.153703
O     -2.882784    0.657936    1.814919
C     -0.047167    0.448139    1.382707
C      0.790539    1.491123    0.670983
O      4.982873    1.694993    0.053902
F      8.224831   -3.168613    2.417477
H      5.257415   -2.073179   -0.847970
H      6.700374   -3.730044    0.368178
H      7.997185   -0.630167    2.972165
H      6.558303    0.986037    1.745647
H      3.506583   -0.756789   -1.303329
H      4.845731   -0.108541   -2.334944
H      2.897266    1.036137   -3.025079
H      4.064432    2.104876   -2.260049
H      1.803720    2.732522   -1.632727
H      2.846658    2.387383   -0.256061
H      0.838815    0.074091   -2.366498
H     -0.288389    1.426642   -1.816957
H     -1.400875   -0.731316   -1.539122
H     -0.008273   -1.349819   -0.594835
H     -5.012384    0.400370    1.063525
H     -5.027240    0.900515   -1.930011
H     -5.477206    1.979252   -0.491633
H     -7.582186    1.377266   -1.299208
H     -6.996865   -0.276252   -1.825342
H     -7.439520    0.612928    1.080269
H     -8.539646   -0.336867    0.023323
H     -6.574521   -1.429304    1.626518
H     -7.326940   -2.273630    0.161213
H     -5.519453   -1.552649   -1.244032
H     -4.716784   -2.115991    0.234101
H     -0.474785    0.920112    2.274608
H      0.541826   -0.473356    1.605090
H      0.109076    2.339498    0.447597
H      1.592176    1.838070    1.351850
