56

C      6.285797   -0.118944   -0.005756
C      4.901700   -0.213404    0.220089
C      3.950656    0.468559   -0.678874
C      2.564779    0.624340   -0.199414
N      1.745809   -0.552766   -0.333648
C      2.348213   -1.543236   -1.212471
C      3.092232   -0.907256   -2.325567
O      4.088477   -0.037035   -1.953855
C      0.386402   -0.270243   -0.763437
C     -0.393741    0.454414    0.300886
O     -1.705748    0.736914   -0.082559
C     -2.678178   -0.191995   -0.409196
C     -4.053103    0.242793   -0.816048
C     -4.725703    1.065735    0.207458
C     -5.016397    2.416841    0.006642
C     -5.647231    3.160915    0.977083
C     -6.017367    2.610064    2.180937
C     -5.737545    1.277453    2.393631
C     -5.096997    0.521849    1.408735
C     -4.890133   -0.852313   -1.376137
C     -5.160354   -2.011740   -0.490466
O     -2.334413   -1.402009   -0.343328
C      2.544215    1.120424    1.216605
C      4.556207   -0.992227    1.305957
C      5.455622   -1.635064    2.120738
C      6.797858   -1.519142    1.870044
C      7.198452   -0.754891    0.798899
H      6.645466    0.464936   -0.828580
H      4.353585    1.530866   -0.770595
H      1.999809    1.407520   -0.808719
H      2.874589   -2.280125   -0.609243
H      1.473619   -2.111758   -1.657593
H      3.517489   -1.685073   -2.991741
H      2.371621   -0.331518   -2.942658
H      0.500158    0.383014   -1.674201
H     -0.129942   -1.210636   -1.028211
H     -0.332057   -0.126827    1.249687
H      0.084817    1.443795    0.515492
H     -3.850904    0.941397   -1.694198
H     -4.727555    2.854993   -0.938417
H     -5.862595    4.200090    0.802944
H     -6.521708    3.205446    2.959041
H     -6.017783    0.816521    3.330092
H     -4.919509   -0.503065    1.666617
H     -4.371077   -1.255294   -2.294440
H     -5.813452   -0.380501   -1.780802
H     -5.350479   -2.928920   -1.124189
H     -6.123093   -1.791776    0.054528
H     -4.379297   -2.303953    0.205655
H      2.185153    2.198411    1.202310
H      3.591720    1.219337    1.612790
H      1.865860    0.591070    1.885983
H      3.500639   -1.117695    1.526395
H      5.142382   -2.242013    2.969763
H      7.555733   -2.005124    2.482856
H      8.277305   -0.681153    0.623662
