38

C     -1.475025   -1.784050   -1.351061
C     -1.460128   -0.956199   -0.260931
C     -0.583806    0.185595   -0.069232
N      0.817654    0.105069    0.078391
C      1.645124   -0.051415   -1.080417
C      3.123098   -0.065732   -0.736795
C      3.510884   -1.171302    0.190656
C      5.021507   -1.024901    0.419186
C     -1.154515    1.385908   -0.012746
C     -2.589209    1.566414   -0.143734
C     -3.078054    2.808732   -0.039754
Cl    -4.796572    3.051892   -0.192910
C     -2.218654    3.953307    0.194206
C     -0.904833    3.851957    0.320966
C     -0.266591    2.545241    0.226072
O      0.982937    2.400310    0.341407
C     -2.334248   -1.275546    0.768252
C     -3.192771   -2.359111    0.738068
C     -3.177861   -3.166640   -0.375476
C     -2.323499   -2.888076   -1.423906
Cl    -2.330431   -0.297403    2.206882
H     -0.814908   -1.564569   -2.171023
H      1.227701    0.160278    1.025357
H      1.496957    0.775747   -1.802517
H      1.392728   -0.977868   -1.645782
H      3.668332   -0.190869   -1.681544
H      3.413454    0.918189   -0.322616
H      3.031566   -1.141100    1.173555
H      3.376044   -2.151815   -0.323799
H      5.554967   -1.073214   -0.565398
H      5.397782   -1.805641    1.111274
H      5.225272   -0.010393    0.814430
H     -3.214509    0.719755   -0.338083
H     -2.672263    4.943154    0.269157
H     -0.270673    4.695841    0.493691
H     -3.869231   -2.581903    1.565862
H     -3.848273   -4.011350   -0.397497
H     -2.309950   -3.518294   -2.295531
