38

C     -1.844965    2.745367    0.804822
C     -1.427391    1.434166    0.770875
N     -0.259773    0.830682    1.086869
C     -0.316369   -0.499013    0.889227
C     -1.578286   -0.787422    0.421552
C     -2.037797   -2.150954    0.082897
C     -0.945180   -3.137857    0.280065
N     -0.009725   -2.794381    1.322917
C      0.704044   -1.590308    1.089723
C      1.620187   -1.645143   -0.109967
C      2.339312   -0.360576   -0.310489
C      1.768995    0.622077   -1.109476
C      2.428433    1.820404   -1.303086
C      3.665066    2.050430   -0.700618
C      4.249510    1.082999    0.099222
C      3.565889   -0.101691    0.272371
C     -2.272773    0.428752    0.348595
C     -3.562312    0.761397   -0.045179
C     -4.007381    2.065545   -0.021529
C     -3.119842    3.051443    0.412469
H     -1.185725    3.521583    1.133079
H      0.593857    1.328785    1.444140
H     -2.347312   -2.189140   -1.000698
H     -2.966523   -2.392867    0.647127
H     -1.415928   -4.111017    0.590597
H     -0.385421   -3.369096   -0.660634
H      0.559320   -3.610215    1.581878
H      1.344838   -1.387049    1.972329
H      1.023124   -1.922406   -1.015343
H      2.395506   -2.420039    0.042126
H      0.818134    0.457512   -1.578606
H      1.945752    2.554724   -1.932716
H      4.163575    3.003232   -0.869443
H      5.215025    1.277853    0.562308
H      3.991547   -0.869789    0.885313
H     -4.205533   -0.055934   -0.373514
H     -5.021632    2.303795   -0.334380
H     -3.482246    4.054155    0.423771
