25

C     -2.487774   -0.519203    0.707150
C     -3.857788   -0.382907    0.614155
C     -4.413254    0.384312   -0.390125
C     -3.542905    0.991192   -1.272533
C     -2.179854    0.856832   -1.181700
C     -1.617789    0.097442   -0.188482
O     -0.281293   -0.102242   -0.007183
C      0.756289    0.417322   -0.782263
C      2.037590   -0.084949   -0.186376
N      2.870076   -0.796417   -0.820884
C      3.997892   -1.129492   -0.007564
C      3.910183   -0.159148    1.178650
N      2.496128    0.146558    1.121687
Cl    -6.158442    0.576139   -0.533247
Cl    -4.939894   -1.171422    1.757383
H     -2.091161   -1.139672    1.522907
H     -3.974213    1.589639   -2.056038
H     -1.490210    1.334510   -1.876537
H      0.689147    0.207057   -1.846088
H      0.754889    1.532648   -0.616564
H      3.990078   -2.174172    0.358137
H      4.915399   -0.955889   -0.572654
H      4.138340   -0.720437    2.115331
H      4.555782    0.717451    1.028423
H      1.922784    0.484848    1.934416
