27

C      1.887358   -0.862161   -0.987382
C      3.245596   -0.920941   -0.657575
C      3.778340   -0.099386    0.319287
C      2.915524    0.774159    0.948841
C      1.584181    0.832705    0.626494
C      1.049332    0.021145   -0.340934
C     -0.390013    0.058826   -0.715104
C     -1.139244   -0.737229    0.308586
N     -1.695146    0.133190    1.328586
C     -2.402732    1.284435    0.822731
O     -3.210745    1.897715    1.545163
C     -2.081563    1.646331   -0.587056
O     -0.759699    1.366653   -0.834654
C     -2.206197   -1.587697   -0.342694
H      1.554024   -1.537537   -1.760487
H      3.922146   -1.600098   -1.145415
H      4.826129   -0.128962    0.589556
H      3.292018    1.447454    1.732210
H      0.913038    1.537560    1.141618
H     -0.532128   -0.452024   -1.692716
H     -0.465599   -1.453517    0.861823
H     -1.604688   -0.037042    2.351983
H     -2.211944    2.745943   -0.660968
H     -2.788951    1.196124   -1.307478
H     -3.148893   -1.612237    0.244738
H     -1.879372   -2.658053   -0.421071
H     -2.450772   -1.255355   -1.368083
