29

C      3.005805   -0.722650    0.009268
C      4.372429   -1.017522    0.123813
C      5.326982   -0.057317   -0.109149
C      4.875741    1.222256   -0.462967
C      3.536144    1.475663   -0.565196
C      2.556405    0.529446   -0.338913
N      1.195554    0.865305   -0.468606
C      0.152458    0.168431    0.100643
N     -1.277074    0.581960   -0.121999
C     -2.037098   -0.369136    0.617544
N     -2.584263   -1.046219    1.143983
C     -3.237240   -1.854327    1.772294
O     -3.789934   -2.703364    2.478491
C     -4.412649   -1.207982    0.679807
N     -3.651155   -0.094219    0.086467
C     -4.023819    0.953311   -0.703473
O      0.329661   -0.823541    0.818783
Cl     4.914567   -2.624653    0.579641
H      2.319840   -1.550982    0.203497
H      6.391820   -0.232633   -0.041703
H      5.624455    1.976964   -0.644791
H      3.156526    2.477697   -0.840641
H      0.943438    1.727093   -1.050392
H     -1.477283    1.365776   -0.676441
H     -5.132120   -0.856167    1.342817
H     -4.480855   -2.007835   -0.005763
H     -4.943250    0.648734   -1.340010
H     -3.295402    1.317685   -1.494565
H     -4.359685    1.858225   -0.107096
