35

C      1.132854    0.260826   -1.125944
C     -0.338180    0.258366   -0.919842
C     -1.145910   -0.740479   -1.425093
C     -2.512601   -0.749709   -1.237881
C     -3.147746    0.248007   -0.529649
C     -2.346511    1.248339   -0.022561
C     -0.979647    1.253781   -0.212142
S     -4.889282    0.238569   -0.289625
C     -5.333502   -0.626871    1.189377
O     -5.431351    1.633158   -0.183952
O     -5.598453   -0.429262   -1.433903
C      1.899773   -0.175409    0.070277
N      3.309399   -0.219641   -0.298988
C      4.308645    0.531495    0.337553
C      5.751007    0.450452   -0.081345
Cl     6.765336    1.499077    0.893508
Cl     5.907705    0.782266   -1.819827
O      4.000878    1.285253    1.272397
C      1.533199   -1.570909    0.530091
F      1.757257   -2.520897   -0.417353
O      1.595096    1.527047   -1.496270
H      1.386040   -0.416017   -1.967331
H     -0.659919   -1.538899   -1.988715
H     -3.141834   -1.550016   -1.645238
H     -2.835463    2.047953    0.542225
H     -0.342510    2.044562    0.188172
H     -4.598638   -1.402601    1.408132
H     -6.350945   -1.062455    1.098706
H     -5.381799    0.105565    2.030441
H      1.707722    0.510635    0.901125
H      3.581825   -0.850083   -1.084307
H      6.057466   -0.605159    0.077439
H      2.097501   -1.854212    1.441413
H      0.451656   -1.630902    0.810251
H      1.790930    2.018167   -0.651725
