48

C      1.591768   -1.556375   -0.524259
C      1.966258   -2.868782   -0.814180
C      2.220287   -3.861126    0.254156
F      3.594066   -3.906829    0.529306
F      1.614289   -3.434644    1.417670
F      1.864011   -5.135515   -0.112912
C      2.105666   -3.245466   -2.131982
C      1.877900   -2.337801   -3.126586
C      1.507408   -1.053721   -2.806248
C      1.343279   -0.592618   -1.515041
N      1.136348    0.744414   -1.153496
C      1.092564    1.857516   -2.088874
C      1.239579    1.687642   -3.452309
C      1.317207    2.759792   -4.284200
C      1.247986    4.062957   -3.798398
C      1.100140    4.275917   -2.452753
C      1.022782    3.152474   -1.605972
S      1.227076    0.071803   -4.150022
C      0.584211    1.042243    0.155583
C     -0.132766    0.037165    1.013888
C     -1.309178    0.815952    1.652440
N     -2.113222   -0.037510    2.459342
C     -1.540342   -0.557759    3.647664
C     -1.298622    0.493393    4.708566
C     -2.877856   -0.999191    1.692756
C     -3.901132   -0.168820    0.913750
O      0.640335    2.176003    0.681128
H      1.594263   -1.325444    0.517780
H      2.392667   -4.255654   -2.426289
H      1.983256   -2.617213   -4.186873
H      1.439921    2.582297   -5.353206
H      1.311747    4.898511   -4.469508
H      1.052373    5.279060   -2.085314
H      0.915332    3.428746   -0.570390
H     -0.552426   -0.743877    0.399277
H      0.443505   -0.293401    1.877222
H     -1.905532    1.191587    0.797597
H     -0.979930    1.669926    2.238392
H     -0.613523   -1.158072    3.476261
H     -2.291957   -1.285631    4.082087
H     -0.558268    0.143985    5.461705
H     -0.952664    1.457572    4.293428
H     -2.226012    0.722594    5.304819
H     -3.446619   -1.620205    2.398457
H     -2.262743   -1.632346    1.045218
H     -4.167116    0.736683    1.457498
H     -4.824762   -0.735355    0.701140
H     -3.471554    0.135123   -0.068320
