53

C     -4.276398    0.121263   -0.668093
C     -3.204305    0.612950    0.102583
C     -3.490487    1.670975    0.911083
C     -4.767114    2.212527    0.955188
C     -5.816741    1.740070    0.208800
C     -5.535602    0.670254   -0.611466
S     -6.829348    0.007124   -1.602238
N     -7.647545   -1.235911   -0.726592
O     -6.283186   -0.524441   -2.903623
O     -7.830712    1.102289   -1.842151
O     -2.481826    2.218399    1.707740
C     -2.747900    3.313592    2.556276
C     -1.905105   -0.038751   -0.022520
N     -0.709922    0.251669    0.626604
C      0.576435   -0.330886    0.525653
C      1.363093   -0.209573   -0.725662
N      2.647381   -0.866496   -0.608125
C      3.530482   -0.008191    0.161463
C      4.897272   -0.641544    0.254851
C      5.118481   -1.715835    1.085552
C      6.376075   -2.301944    1.183508
C      7.442901   -1.823935    0.451740
F      8.675057   -2.407603    0.557054
C      7.228337   -0.748065   -0.382110
C      5.970006   -0.170801   -0.473921
C      3.148479   -1.062430   -1.911128
C      2.010038   -1.010841   -2.859915
C      0.790785   -0.875771   -1.942470
O     -1.860243   -1.014680   -0.845666
H     -4.097211   -0.731255   -1.336542
H     -4.925413    3.058008    1.623327
H     -6.817629    2.137126    0.219946
H     -8.589137   -1.356962   -1.174596
H     -7.836724   -0.868596    0.247143
H     -3.504697    3.065232    3.305001
H     -1.799543    3.532997    3.120105
H     -3.056546    4.204270    1.970191
H     -0.788126    1.067562    1.329340
H      1.220865    0.092907    1.354529
H      0.570502   -1.432153    0.779237
H      1.611415    0.865853   -0.945132
H      3.144469    0.137466    1.174210
H      3.642261    0.943979   -0.368308
H      4.302354   -2.107843    1.669060
H      6.575030   -3.152229    1.833595
H      8.078981   -0.389846   -0.946013
H      5.831007    0.672205   -1.133805
H      3.934830   -0.321906   -2.201948
H      3.649297   -2.079430   -1.913804
H      1.969917   -1.941793   -3.455784
H      2.064654   -0.156759   -3.566318
H      0.007361   -0.280595   -2.468262
H      0.423700   -1.891649   -1.807168
