61

C      1.659179   -0.743743    0.586252
Cl     1.845173   -2.551645    0.614999
C      3.029147   -0.180785    0.724023
C      3.663876   -0.184680   -0.617661
C      4.344357    0.826301   -1.079456
C      4.540925    2.064965   -0.341143
O      5.200240    3.025389   -0.795668
C      3.902981    2.080040    0.965187
C      3.223378    1.061172    1.425957
C      3.418367   -1.343462   -1.564114
F      3.953311   -2.512996   -1.170721
C      1.900217   -1.474781   -1.731220
C      1.230299   -0.443755   -0.830890
C     -0.204394   -0.274316   -1.075714
C     -0.752237    0.775888   -0.172166
C     -0.252936    0.744347    1.227202
C      0.689663   -0.357213    1.599957
Cl     1.240175   -0.237325    3.273342
C     -2.236474    0.494750   -0.166579
C     -2.972944    1.283634   -1.158467
O     -3.838453    2.049908   -0.699426
C     -2.831212    1.286797   -2.611503
O     -3.773864    2.118232   -3.236477
O     -2.768043    0.673872    1.122218
C     -3.384836   -0.498993    1.490961
O     -2.626357   -1.530978    0.900605
C     -2.354962   -0.976536   -0.351482
C     -1.061261   -1.463263   -0.944814
C     -3.370259   -0.613031    2.996666
C     -4.791131   -0.644874    0.976827
C     -0.489582    2.163467   -0.780277
C      3.831907   -1.283666    1.521112
H      4.806835    0.752509   -2.091823
H      4.016843    3.006213    1.567493
H      2.809666    1.259593    2.446146
H      3.824178   -1.076641   -2.554034
H      1.558685   -2.487080   -1.474866
H      1.590660   -1.252554   -2.762442
H      1.719738    0.535003   -1.116422
H     -0.283637    0.125734   -2.143107
H      0.327762    1.701340    1.405100
H     -1.091473    0.816854    1.942617
H     -0.037515   -1.263826    1.679985
H     -1.852160    1.688524   -2.913772
H     -2.918985    0.283163   -3.077078
H     -4.682860    1.724257   -3.182419
H     -3.233269   -1.262802   -0.980540
H     -0.653556   -2.240645   -0.295481
H     -1.256807   -1.965609   -1.945714
H     -3.380339    0.409814    3.448368
H     -4.192368   -1.252145    3.383146
H     -2.425643   -1.090169    3.350191
H     -5.073246   -1.725011    1.108005
H     -5.524010   -0.053635    1.563552
H     -4.862197   -0.425455   -0.089945
H      0.152038    2.696671   -0.022014
H      0.105101    2.097561   -1.685499
H     -1.412191    2.729596   -0.849588
H      4.822588   -0.828413    1.674693
H      3.814113   -2.227649    0.999325
H      3.367799   -1.410682    2.518592
