56

C     -0.358375   -1.034706    0.097896
C     -1.176629    0.169610   -0.411786
C     -2.465626    0.331773    0.299748
C     -3.105759   -1.005016    0.441857
C     -4.450444   -1.110955    0.464340
C     -5.342977    0.006493    0.358536
O     -6.571916   -0.156464    0.517312
C     -4.770383    1.340993    0.059385
C     -3.410136    1.132889   -0.566766
C     -2.366260   -2.279941    0.579559
C     -1.083109   -2.320723   -0.212997
C     -2.352839    0.882265    1.697235
C     -0.298422    1.346757   -0.544882
C      0.996878    1.307855    0.234213
C      1.787403    0.068625    0.101105
C      0.894003   -0.938155   -0.642507
C      1.793486   -2.082575   -0.757869
C      3.070435   -1.404408   -1.216208
C      2.921551    0.079984   -0.860768
C      4.225686    0.535281   -0.319166
C      5.004895    1.648976   -0.932620
O      6.183306    1.872459   -0.233996
O      4.734366    0.021896    0.661382
O      2.566595    0.810208   -2.002039
C      2.275818   -0.463202    1.412829
O     -0.891776    2.567321   -0.172277
F     -1.524607   -0.231574   -1.719891
H     -0.341293   -0.924505    1.178824
H     -4.887253   -2.109494    0.569586
H     -5.388953    1.832914   -0.746876
H     -4.774167    2.030138    0.901886
H     -3.039887    2.082436   -0.923473
H     -3.594569    0.494875   -1.481726
H     -2.979330   -3.124498    0.203560
H     -2.153400   -2.525338    1.640931
H     -1.246730   -2.468045   -1.294025
H     -0.475336   -3.144470    0.181061
H     -1.601195    1.650743    1.847140
H     -3.324682    1.198775    2.069876
H     -2.041434    0.010206    2.346181
H      0.030216    1.522723   -1.615675
H      0.724321    1.440903    1.302814
H      1.552402    2.229875   -0.052978
H      0.776480   -0.480709   -1.657763
H      1.516384   -2.827463   -1.542538
H      1.950491   -2.592940    0.220201
H      3.124180   -1.472801   -2.319133
H      3.948829   -1.849356   -0.719239
H      4.372519    2.571135   -0.784291
H      5.154037    1.522525   -2.013636
H      6.971085    1.979492   -0.837543
H      3.086897    0.394235   -2.752383
H      2.990822   -1.302792    1.343144
H      2.825428    0.365346    1.948421
H      1.469823   -0.826202    2.080638
H     -0.930852    3.226622   -0.877686
