61

C     -0.998906   -0.963772    0.400425
C     -1.535655    0.080427   -0.592340
C     -2.986833    0.366144   -0.341421
C     -3.728641   -0.922630   -0.314531
C     -5.044510   -0.877429   -0.518829
C     -5.731673    0.382738   -0.759349
O     -6.939109    0.568490   -0.475201
C     -4.967343    1.500658   -1.369722
C     -3.507992    1.143298   -1.548005
C     -3.130833   -2.235340   -0.082434
C     -1.699185   -2.259982    0.285408
C     -3.275402    1.092111    0.923526
C     -0.706836    1.292873   -0.705946
C      0.745998    1.187368   -0.469858
C      1.132534    0.144368    0.564848
C      0.430724   -1.114763    0.058847
C      1.221367   -2.183502    0.677985
C      2.618205   -1.754863    0.185753
C      2.584665   -0.242699    0.474870
C      3.266963   -0.099185    1.780219
C      4.495876    0.657995    2.068078
O      5.204083    1.127308    0.953154
C      5.823414    0.314318    0.019380
C      6.559659    0.868532   -1.159319
O      5.753642   -0.929726    0.184871
O      2.700823   -0.701713    2.715291
O      3.177696    0.481108   -0.550333
C      0.697322    0.557222    1.930173
O     -1.186758    2.368139    0.079306
F     -1.483583   -0.580397   -1.832791
H     -1.194701   -0.536437    1.402133
H     -5.624635   -1.787366   -0.507770
H     -5.405801    1.697303   -2.363456
H     -5.123180    2.392451   -0.742811
H     -2.950950    2.100520   -1.611263
H     -3.372730    0.520546   -2.441194
H     -3.727722   -2.714607    0.749606
H     -3.354225   -2.890761   -0.969294
H     -1.538653   -2.811916    1.259640
H     -1.162631   -2.916916   -0.462210
H     -2.582888    0.917914    1.745328
H     -3.429605    2.190419    0.705336
H     -4.289249    0.765396    1.303606
H     -0.834702    1.683082   -1.763192
H      1.162566    2.150811   -0.107485
H      1.285285    0.922183   -1.403220
H      0.526131   -1.143706   -1.047284
H      0.960679   -3.183305    0.245911
H      1.185812   -2.204405    1.764950
H      2.662559   -1.909997   -0.909940
H      3.410319   -2.261255    0.730649
H      5.188276   -0.022970    2.622854
H      4.308435    1.488965    2.809518
H      6.486590    0.153072   -2.025438
H      6.229721    1.875357   -1.420363
H      7.630548    0.900284   -0.888418
H      3.249180   -0.036113   -1.392102
H      0.432204   -0.296748    2.608793
H      1.470773    1.216271    2.375271
H     -0.209637    1.235492    1.868139
H     -0.877481    3.239338   -0.285885
