42

C      2.167490   -3.102675    0.848074
C      3.390836   -3.744738    0.977512
F      3.498729   -5.041158    1.325973
C      4.573221   -3.057696    0.747124
C      4.533874   -1.734678    0.388894
C      3.293095   -1.103911    0.263170
C      2.118336   -1.786912    0.492177
N      0.809967   -1.244366    0.392916
C      0.400584    0.073054    0.049764
C      1.146009    1.167888   -0.275395
C      2.510227    1.171372   -0.326592
N      3.424356    0.253699   -0.110766
S      2.883666    2.794947   -0.781790
C      1.304249    3.407277   -0.890106
C      0.526240    2.331689   -0.569000
C      0.822042    4.794930   -1.249646
N     -1.009750    0.279143    0.045671
C     -1.698821    0.672206    1.251889
C     -2.956711   -0.149324    1.470905
N     -3.774421   -0.194171    0.286490
C     -3.212572    0.533467   -0.820452
C     -1.795578    0.105901   -1.147062
C     -4.153777   -1.537508   -0.030724
H      1.250550   -3.639169    1.027743
H      5.545071   -3.518898    0.836671
H      5.431602   -1.143780    0.195138
H      0.041709   -1.925977    0.606621
H     -0.582459    2.465268   -0.564478
H      0.813680    4.902659   -2.341757
H     -0.170701    4.936089   -0.787895
H      1.523357    5.486440   -0.734874
H     -2.059063    1.740693    1.184335
H     -1.073448    0.530939    2.160851
H     -3.556111    0.409928    2.244112
H     -2.722949   -1.168669    1.839472
H     -3.886285    0.444649   -1.680170
H     -3.178111    1.617499   -0.517056
H     -1.458144    0.738453   -1.991270
H     -1.858816   -0.973808   -1.452341
H     -3.550819   -1.985142   -0.844461
H     -4.073822   -2.195064    0.881791
H     -5.236532   -1.610546   -0.343314
