69

C     -1.798367   -1.044431   -0.005249
O     -2.108641   -2.473604    0.028570
C     -2.945106   -2.655342   -1.060961
O     -2.345943   -1.910780   -2.059700
C     -2.012932   -0.738488   -1.441685
C     -0.717183   -0.137047   -2.004037
C     -0.041915    0.259438   -0.728381
C     -0.307528   -0.946092    0.137852
C      0.242053   -0.661609    1.475263
C      1.729369   -0.438036    1.444905
O      2.319140   -1.639720    1.908681
C      2.311633   -0.007145    0.167525
F      2.996562   -1.058651   -0.464733
C      1.365645    0.698927   -0.792964
C      1.988217    0.728262   -2.158163
C      3.142291    1.751854   -2.101157
F      3.791189    1.894037   -3.274976
C      4.033809    1.305942   -0.967791
C      5.302227    1.207798   -1.227766
C      6.296835    0.778342   -0.243566
O      7.519745    0.690541   -0.506684
C      5.748027    0.460263    1.070849
C      4.455817    0.573403    1.304860
C      3.472439    1.010851    0.344250
C      2.884794    2.318259    0.883339
C      0.280590   -2.209071   -0.471180
C     -4.359568   -2.212978   -0.768225
C     -3.019963   -4.123221   -1.446589
C     -2.664312   -0.399472    0.958501
O     -3.138736   -1.226244    1.814158
C     -3.141407    0.949703    1.189288
O     -4.126991    0.914609    2.235370
C     -5.333105    1.384779    1.802966
O     -2.209287    1.832002    1.656046
C     -2.239812    3.039074    0.973321
H     -2.816829   -0.007183   -1.642681
H     -0.180433   -0.782927   -2.676003
H     -0.937682    0.812792   -2.570474
H     -0.676451    1.064951   -0.321164
H     -0.011198   -1.482476    2.212407
H     -0.215743    0.235254    1.900245
H      2.002487    0.295881    2.247353
H      3.180141   -1.812940    1.455697
H      1.383078    1.781080   -0.441573
H      2.343847   -0.251134   -2.500062
H      1.220608    1.166039   -2.850948
H      2.691669    2.700732   -1.797465
H      5.692456    1.455282   -2.243629
H      6.411132    0.122961    1.877504
H      4.131370    0.303198    2.330938
H      3.612023    2.696809    1.642519
H      1.952836    2.150311    1.459778
H      2.808068    3.107119    0.138487
H      0.743616   -2.078360   -1.444286
H     -0.490445   -2.985102   -0.601449
H      0.966254   -2.641626    0.299561
H     -4.471290   -1.147882   -0.584503
H     -4.692360   -2.757453    0.149641
H     -5.049517   -2.470734   -1.604027
H     -3.392558   -4.689371   -0.557668
H     -2.037080   -4.509737   -1.794793
H     -3.800555   -4.225156   -2.230625
H     -3.673937    1.410131    0.330556
H     -6.036685    1.317174    2.666555
H     -5.322478    2.448654    1.512099
H     -5.772365    0.780659    0.973516
H     -1.459849    3.741980    1.345704
H     -3.259137    3.490768    1.169726
H     -2.212578    2.844149   -0.099806
