49

C     -0.245381   -0.088008   -0.461439
C     -1.484590   -0.903123   -0.289540
C     -2.621224   -0.291312   -0.856183
C     -2.463612    1.095962   -1.450076
C     -1.666898    1.844217   -0.376014
C     -0.576932    1.199888    0.184239
C      0.108023    1.760786    1.221645
C     -0.306293    3.003313    1.703078
C     -1.383178    3.652184    1.150338
C     -2.072500    3.038584    0.076762
C     -3.788368    1.769272   -1.584238
C     -3.814013   -0.918259   -0.796012
C     -3.911642   -2.176368   -0.174231
C     -2.790551   -2.756907    0.378687
C     -1.558674   -2.120148    0.321023
C     -2.822852   -4.064191    1.075667
F     -3.545098   -3.912477    2.245546
F     -1.568449   -4.519807    1.364973
F     -3.451648   -5.020491    0.298513
C      0.989591   -0.771174   -0.110020
C      2.225822   -0.009249   -0.366020
C      3.473521   -0.793839    0.036682
N      4.681289   -0.001926   -0.204379
C      5.829132   -0.850336    0.146390
C      4.740790    1.139741    0.697576
H     -0.201015    0.122116   -1.573092
H     -1.929523    1.095565   -2.382016
H      0.940704    1.263714    1.718430
H      0.274009    3.408710    2.523401
H     -1.704622    4.621588    1.527945
H     -2.890007    3.610168   -0.292322
H     -4.303847    1.700725   -0.604305
H     -4.438221    1.206169   -2.305072
H     -3.741748    2.831938   -1.870985
H     -4.728412   -0.481847   -1.239219
H     -4.848486   -2.712385   -0.124233
H     -0.646081   -2.565361    0.752160
H      1.006371   -1.177982    0.940587
H      1.028828   -1.729779   -0.720962
H      2.322512    0.983978    0.050107
H      2.359283    0.110997   -1.512352
H      3.414367   -0.924483    1.135552
H      3.527284   -1.756941   -0.511605
H      6.669893   -0.454545   -0.460898
H      5.553123   -1.855566   -0.136075
H      5.999395   -0.828508    1.247530
H      5.814980    1.398071    0.816756
H      4.392728    0.870103    1.697953
H      4.152224    1.957221    0.256131
