40

C     -0.453239   -2.629575   -0.910219
C     -1.152796   -1.835967   -0.056292
C     -1.129707   -0.335128   -0.352898
O      0.075633    0.106418   -0.208134
C      1.334268    0.338798   -0.137828
C      1.809615    1.648890    0.108055
C      3.154655    1.941708    0.204877
C      4.083772    0.909466    0.052856
C      3.679241   -0.366766   -0.186608
C      2.318644   -0.629177   -0.275416
C      5.559170    1.162432    0.151329
F      5.835116    2.489357    0.319117
F      6.213156    0.619449   -0.933536
F      5.968384    0.432181    1.272832
C     -2.296559    0.314457    0.300852
C     -2.361796    1.813834    0.064577
N     -3.500211    2.392102    0.741836
C     -3.670092    3.789207    0.569049
C     -1.790347   -2.376545    1.011805
C     -1.720855   -3.756663    1.224415
C     -1.003848   -4.568746    0.352545
C     -0.371364   -4.002727   -0.715192
H      0.078530   -2.236462   -1.787446
H     -1.396236   -0.403224   -1.489310
H      1.098039    2.449940    0.218841
H      3.524063    2.928891    0.387680
H      4.419471   -1.181959   -0.293637
H      2.038451   -1.641225   -0.462462
H     -3.276544   -0.149749   -0.014685
H     -2.231360    0.169244    1.393229
H     -2.511789    1.995732   -1.034811
H     -1.484024    2.362823    0.428334
H     -4.343766    1.833408    0.820832
H     -2.708031    4.338722    0.405146
H     -4.126607    4.300376    1.464479
H     -4.321144    4.070617   -0.297926
H     -2.356335   -1.817923    1.732326
H     -2.231726   -4.235563    2.073678
H     -0.956527   -5.639000    0.522738
H      0.204694   -4.601655   -1.442656
