66

C      6.206155    0.757155    1.110706
C      6.774881    1.730687    1.881487
C      6.027831    2.863839    2.102302
C      4.773291    2.996699    1.568078
C      4.235036    1.983655    0.791666
C      4.932963    0.829603    0.536433
N      4.454927   -0.252470   -0.249386
C      3.249658   -0.613303   -0.900613
C      3.809702   -1.032739   -2.245369
N      4.870523   -1.900105   -1.852441
C      5.332714   -1.408391   -0.565741
O      3.446000   -0.709225   -3.398007
C      2.743424   -1.937002   -0.285733
C      1.581877   -2.474602   -1.085971
N      0.531580   -1.472062   -1.042803
C     -0.742131   -2.001537   -1.418802
C     -1.865319   -1.023330   -1.394305
C     -2.072069   -0.439813   -0.026511
C     -3.204703    0.536333   -0.036847
C     -4.488101   -0.066017   -0.448681
C     -5.354598    0.651712   -1.244239
C     -6.570202    0.134838   -1.657471
C     -6.942289   -1.131610   -1.272781
C     -6.092995   -1.864567   -0.479411
C     -4.870844   -1.328977   -0.071275
F     -8.144707   -1.585257   -1.708209
C     -3.410247    1.205805    1.258587
C     -3.811079    2.525005    1.287286
C     -4.013058    3.183278    2.504161
C     -3.816485    2.529779    3.704171
C     -3.419839    1.224295    3.684186
C     -3.222348    0.580761    2.473962
F     -4.023641    3.205471    4.861392
C      0.983616   -0.356470   -1.792661
C      2.129891    0.304282   -1.007995
H      6.825757   -0.140653    0.953774
H      7.779445    1.619548    2.306851
H      6.437309    3.665060    2.708510
H      4.152169    3.877364    1.720242
H      3.241822    2.092726    0.372037
H      5.196902   -2.703799   -2.425885
H      5.375963   -2.138889    0.228830
H      6.369799   -1.067915   -0.765572
H      3.505860   -2.713449   -0.285281
H      2.476179   -1.705104    0.760028
H      1.941132   -2.673191   -2.107066
H      1.220664   -3.384368   -0.577939
H     -0.992234   -2.811016   -0.688212
H     -0.643340   -2.511607   -2.398018
H     -2.795677   -1.583852   -1.665881
H     -1.773631   -0.231912   -2.178974
H     -1.165260    0.089524    0.336989
H     -2.325949   -1.265904    0.665413
H     -2.933214    1.331624   -0.776813
H     -5.088764    1.652129   -1.563157
H     -7.209232    0.754084   -2.285674
H     -6.370178   -2.852375   -0.172368
H     -4.232674   -1.929871    0.549063
H     -3.967184    3.043893    0.351021
H     -4.326791    4.215767    2.533929
H     -3.258800    0.689273    4.605773
H     -2.907934   -0.453910    2.446057
H      1.248423   -0.662440   -2.793192
H      0.219926    0.465409   -1.868065
H      1.658888    0.437336   -0.009606
H      2.321209    1.250793   -1.555978
