85

C      6.084938    1.998283   -0.112496
C      5.143674    2.871581    0.634392
C      5.422119    4.248880    0.676069
O      6.468606    4.740392    0.061728
C      4.566514    5.097486    1.390876
C      3.484855    4.539783    2.025273
C      3.240382    3.195288    1.965682
C      4.083343    2.324762    1.257019
C      3.687028    0.899980    1.233644
O      4.233595    0.076777    2.018337
N      2.686227    0.442387    0.355561
C      2.177672   -0.884705    0.228745
C      2.925527   -1.924685    1.061257
S      4.621414   -2.221204    0.612135
C      4.835108   -3.199269   -0.850507
C      3.769006   -3.691763   -1.552478
C      3.955190   -4.493747   -2.681219
C      5.250856   -4.781299   -3.077341
C      6.342862   -4.296181   -2.386231
C      6.116867   -3.508863   -1.278150
C      0.758930   -0.960964    0.660307
O      0.264272   -2.230702    0.418482
C     -0.152406    0.095054    0.148917
N     -1.462788    0.030864    0.738321
C     -1.584329    0.297852    2.095691
C     -2.939872    0.135433    2.656754
C     -3.863601    1.289697    2.414407
C     -5.101380    1.053569    3.268222
C     -5.809129   -0.201254    2.849575
C     -4.931957   -1.395853    2.755485
C     -3.565159   -1.127773    2.182135
C     -3.640195   -1.117411    0.681710
C     -2.392663   -0.685128    0.004060
C     -2.813598    0.179645   -1.159320
O     -2.389448    1.368472   -1.286864
N     -3.703445   -0.360949   -2.127529
C     -4.085519    0.503041   -3.235943
C     -2.800042    0.890695   -3.954398
C     -4.934831   -0.236120   -4.242610
C     -4.804730    1.715857   -2.736900
H      6.636594    1.343261    0.617330
H      5.553029    1.434687   -0.896014
H      6.873908    2.598061   -0.599138
H      7.197918    5.066984   -0.368700
H      4.762985    6.152378    1.439233
H      2.812806    5.227785    2.577386
H      2.380959    2.798964    2.470220
H      2.277468    1.219064   -0.289538
H      2.326621   -1.274653   -0.818570
H      2.775913   -1.762664    2.158486
H      2.363004   -2.899166    0.882336
H      2.771280   -3.464530   -1.223378
H      3.085540   -4.864520   -3.218150
H      5.339033   -5.416835   -3.966070
H      7.323656   -4.569984   -2.758385
H      6.972105   -3.127995   -0.733514
H      0.818749   -0.912136    1.807250
H      0.312251   -2.840096    1.175241
H     -0.266967   -0.027050   -0.942403
H      0.219833    1.133136    0.317663
H     -1.230576    1.340178    2.308423
H     -0.904950   -0.327609    2.758609
H     -2.851331    0.054068    3.783890
H     -4.184633    1.353667    1.373930
H     -3.432606    2.260369    2.738816
H     -5.796694    1.897885    3.102576
H     -4.809206    0.968426    4.357170
H     -6.585367   -0.405211    3.649091
H     -6.403526    0.012493    1.940575
H     -4.853428   -1.931067    3.731834
H     -5.428616   -2.129980    2.049959
H     -2.921210   -1.993183    2.493456
H     -4.503153   -0.478096    0.399914
H     -3.903701   -2.147595    0.365230
H     -1.892038   -1.559980   -0.469054
H     -4.066582   -1.333003   -2.060551
H     -2.937850    0.937997   -5.053664
H     -2.016246    0.123655   -3.770588
H     -2.456531    1.905290   -3.649244
H     -4.518823   -1.218127   -4.482334
H     -4.998935    0.432672   -5.145116
H     -5.968524   -0.372336   -3.879731
H     -4.431048    2.605749   -3.277786
H     -4.688050    1.891098   -1.635663
H     -5.896955    1.620043   -2.973825
