53

C     -4.024130    1.350631    0.300498
C     -5.117838    1.863921    0.940753
C     -5.259502    3.340606    1.100148
F     -6.442159    3.605560    1.733233
F     -4.234259    3.876679    1.874557
F     -5.269223    3.885575   -0.180678
C     -6.099846    1.066430    1.456568
C     -5.913296   -0.282504    1.288181
C     -4.817100   -0.780266    0.647723
C     -3.830111   -0.030127    0.127752
N     -2.679632   -0.473762   -0.629301
C     -2.461760   -1.878109   -0.940617
C     -3.339694   -2.839484   -0.514321
S     -2.785399   -4.303721   -1.231944
C     -1.465026   -3.677992   -2.046964
C     -1.458712   -2.356450   -1.764079
S     -4.722663   -2.552678    0.570534
C     -1.792110    0.596531   -0.983762
C     -0.340508    0.380593   -1.193497
C      0.352923   -0.119720    0.045363
N      1.687644   -0.384964    0.013724
C      2.419945   -0.565882    1.237579
C      3.650258    0.362874    1.225124
N      4.411378    0.279337    0.037803
C      5.616807   -0.466381    0.070812
C      6.686188    0.221277    0.929577
O      6.958376    1.481035    0.392155
C      3.688262    0.306028   -1.183431
C      2.449421   -0.580868   -1.140879
H     -3.334749    2.086108   -0.082760
H     -6.973730    1.473592    1.980337
H     -6.699955   -0.918120    1.694434
H     -0.744665   -4.213759   -2.697913
H     -0.655246   -1.749483   -2.221075
H     -1.768106    1.309410   -0.052345
H     -2.222319    1.193684   -1.825693
H      0.039761    0.103671   -2.149835
H      0.054411    1.523739   -1.184978
H      0.125596    0.644624    0.858206
H     -0.208488   -1.029177    0.408090
H      2.772938   -1.601367    1.347224
H      1.805961   -0.284487    2.091666
H      4.255438    0.094207    2.106748
H      3.282814    1.421065    1.367647
H      5.438806   -1.488885    0.461042
H      6.032406   -0.518341   -0.959829
H      7.601184   -0.408880    0.910698
H      6.295620    0.395461    1.939294
H      6.457164    1.565213   -0.468084
H      4.339491   -0.095747   -1.997320
H      3.447323    1.351309   -1.463234
H      2.882071   -1.633116   -1.071079
H      1.908040   -0.544891   -2.069987
