65

C     10.012897   -1.211668    0.990729
O      9.301695   -0.331561    0.169883
C      7.931786   -0.376157   -0.026610
C      7.099194   -1.298299    0.567539
C      5.746348   -1.279123    0.322928
C      5.174902   -0.350634   -0.514282
C      3.686314   -0.343993   -0.774320
C      3.077389    0.547883    0.254792
N      1.636968    0.674015    0.173180
C      1.153830    1.567090    1.230114
C     -0.058119    2.330991    0.742543
C     -1.027702    1.382970    0.023102
C     -0.325695    0.808555   -1.201491
C      1.146038    1.083737   -1.105537
N     -1.452225    0.342379    0.888887
C     -2.496340   -0.601288    0.715863
N     -2.614408   -1.657155    1.600009
C     -3.642928   -2.435737    1.269858
C     -4.192574   -3.596206    1.800268
C     -5.287459   -4.200289    1.233503
C     -5.839186   -3.623207    0.110797
C     -5.290727   -2.466272   -0.417258
C     -4.190477   -1.857163    0.150229
N     -3.473641   -0.735976   -0.167414
C     -3.839774    0.076075   -1.292980
C     -4.973141    0.980555   -0.886098
C     -4.848056    1.946716    0.058527
C     -5.903764    2.806276    0.416991
C     -7.117882    2.666727   -0.212137
F     -8.160040    3.485447    0.114379
C     -7.253856    1.683861   -1.175771
C     -6.216770    0.846520   -1.521409
C      5.992345    0.577198   -1.115529
C      7.345840    0.550255   -0.864595
H      9.934411   -2.232744    0.568496
H      9.658809   -1.170837    2.044915
H     11.078347   -0.881037    1.013125
H      7.538905   -2.039112    1.232412
H      5.123703   -2.016014    0.805073
H      3.590564    0.090330   -1.794976
H      3.269381   -1.362060   -0.714412
H      3.484160    1.590386    0.127203
H      3.395582    0.230925    1.267504
H      0.986805    1.016984    2.171387
H      1.959428    2.303681    1.410756
H      0.277907    3.145672    0.088101
H     -0.555421    2.770239    1.617547
H     -1.850498    2.009949   -0.304630
H     -0.516912   -0.291309   -1.302240
H     -0.780246    1.298558   -2.106729
H      1.630810    0.445719   -1.881032
H      1.323852    2.158273   -1.331802
H     -0.880367    0.286622    1.809043
H     -3.758858   -4.044501    2.677814
H     -5.715510   -5.112183    1.654770
H     -6.699117   -4.079931   -0.351483
H     -5.743664   -2.029181   -1.305528
H     -4.260300   -0.625123   -2.072835
H     -3.035238    0.623349   -1.762902
H     -3.907100    2.071896    0.587567
H     -5.727569    3.557417    1.182177
H     -8.220698    1.594524   -1.654982
H     -6.320194    0.077520   -2.275997
H      5.604807    1.332644   -1.783420
H      8.013442    1.286818   -1.339072
