42

C     -1.413642    0.294556   -1.440927
C     -1.039703    0.252688   -2.776431
C      0.270622   -0.041465   -3.072609
C      1.211796   -0.289598   -2.099929
C      0.837214   -0.240550   -0.769311
C     -0.503065    0.050838   -0.446823
N     -1.070115   -0.005212    0.876853
C     -0.462974   -0.737672    1.953999
C      0.672909   -1.693416    1.874829
N      1.828459   -1.084133    1.257609
C      1.944984   -0.446714    0.129421
C      3.234014    0.070728   -0.232587
C      3.565073    0.895472   -1.258860
C      4.873155    1.254101   -1.586847
C      5.914267    0.765648   -0.847374
C      5.615865   -0.068028    0.199715
C      4.330783   -0.425099    0.525478
O     -1.015695   -0.481092    3.042053
C     -2.247692    0.719799    1.075108
P     -3.834112   -0.065261    0.913879
C     -4.653969   -0.359151    2.511031
C     -4.926614    1.094700    0.037597
O     -3.858444   -1.313294    0.055200
Cl     0.787690   -0.103663   -4.748537
H     -2.398619    0.530947   -1.132019
H     -1.794628    0.452400   -3.504822
H      2.231126   -0.590893   -2.322531
H      0.902612   -2.026031    2.891550
H      0.355804   -2.551455    1.274370
H      2.756823    1.384287   -1.836368
H      5.013219    1.920533   -2.433979
H      6.930966    1.028371   -1.081762
H      6.401082   -0.491038    0.830329
H      4.083204   -1.074393    1.339996
H     -2.239157    1.044331    2.168815
H     -2.310651    1.658740    0.444021
H     -5.342670   -1.222658    2.401486
H     -5.285442    0.501322    2.818693
H     -3.924740   -0.517380    3.330278
H     -4.744129    0.999119   -1.042565
H     -4.706671    2.137615    0.405633
H     -5.988934    0.830143    0.276339
