15

C      0.101807   -1.187800   -0.070921
P      1.606047   -0.205491    0.071874
O      1.773268    0.436002    1.646420
O      1.674444    1.027547   -1.071988
O      2.859273   -1.060638   -0.128194
C     -1.190258   -0.661117   -0.340550
C     -1.582761    0.771588   -0.386828
O     -0.837110   -1.070477    1.013891
H      0.294579   -2.260436   -0.282286
H      1.085350    0.100033    2.250462
H      1.336128    1.893002   -0.709497
H     -1.952706   -1.343352   -0.813948
H     -1.238404    1.307499   -1.298027
H     -2.698668    0.894155   -0.379420
H     -1.230986    1.359484    0.499012
