52

C      3.566134   -0.621344    0.889867
N      4.318982   -0.903163    1.961613
C      5.426466   -0.188872    2.243630
N      5.828299    0.839128    1.464153
C      5.116279    1.160300    0.387817
C      3.979243    0.435967    0.088018
C      3.208073    0.795130   -1.096003
N      2.016616   -0.119693   -1.226860
C      0.879779    0.313760   -0.544193
C     -0.245138   -0.294261   -0.373782
S     -1.592604    0.485931    0.556596
S     -2.782130   -0.901967    1.553599
C     -4.170188   -1.555515    0.692400
C     -5.267910   -0.580635    0.353008
C     -4.813052    0.554339   -0.523831
C     -6.012070    1.506002   -0.361618
C     -6.664769    0.972635    0.895086
O     -5.736025    0.097127    1.474358
C     -0.464903   -1.690097   -0.767928
C     -1.212224   -1.801408   -2.071914
O     -2.423234   -1.172795   -2.017202
C      0.937925    1.704526    0.107058
C      2.243766   -1.270647   -1.974086
O      3.458162   -1.478037   -2.451869
N      5.501451    2.232910   -0.459982
C      6.189752   -0.593108    3.465419
H      2.674627   -1.145447    0.604942
H      2.838245    1.819863   -1.021646
H      3.826024    0.626321   -1.996904
H     -4.659530   -2.323378    1.412829
H     -3.894135   -2.183025   -0.159306
H     -6.140712   -1.084166   -0.096425
H     -4.694661    0.271090   -1.589135
H     -3.961788    1.063029   -0.078575
H     -5.663201    2.552067   -0.251948
H     -6.644522    1.346208   -1.258773
H     -7.517400    0.340027    0.560893
H     -6.970154    1.780182    1.578185
H      0.356129   -2.390455   -0.614329
H     -1.245676   -2.147620   -0.014261
H     -1.390628   -2.877553   -2.338346
H     -0.573278   -1.416817   -2.907052
H     -2.507341   -0.355675   -2.542583
H      1.875706    1.714352    0.709463
H      0.980753    2.492077   -0.636596
H      0.118809    1.795143    0.832911
H      1.547483   -2.017495   -2.215889
H      5.440883    2.161816   -1.490428
H      5.856087    3.121050   -0.052142
H      7.135736   -0.002558    3.550595
H      6.415843   -1.683792    3.428089
H      5.510021   -0.430776    4.323079
