57

H      0.000000    0.000000    0.000000
C      8.394790    0.389064    0.652152
C      8.924543   -0.811842    0.199529
C      8.033332   -1.764407   -0.237409
N      6.727043   -1.506518   -0.210969
C      6.237680   -0.336110    0.231740
N      7.073571    0.624095    0.668638
N      4.825424   -0.163861    0.217106
C      4.213870    1.051538    0.709379
C      2.804996    1.259835    0.316028
N      2.308180    0.559175   -0.778609
C      3.018282   -0.562036   -1.266482
C      3.970015   -1.188103   -0.286727
C      0.876473    0.380118   -0.861632
C      0.362341   -0.538096    0.199007
C     -1.123757   -0.723385    0.066633
C     -1.892417    0.544033    0.200992
N     -3.316082    0.357824    0.078683
C     -4.102912    0.077403    1.243432
O     -3.728430    0.290106    2.395467
C     -5.442160   -0.504639    0.993013
C     -6.244268    0.235753   -0.021030
C     -5.474884    0.414647   -1.284750
C     -4.023613    0.429585   -1.133026
O     -3.341362    0.515616   -2.211747
C     -6.716017    1.586019    0.478020
C     -7.499734   -0.592139   -0.268738
Cl     0.000000    0.000000    0.000000
H      9.119498    1.118453    0.988946
H      9.988269   -1.010070    0.182629
H      8.402832   -2.696637   -0.591405
H      4.360490    1.047923    1.822321
H      4.866907    1.886248    0.347154
H      2.678854    2.366432    0.101605
H      2.165312    1.095051    1.208520
H      2.294379   -1.351062   -1.566984
H      3.575231   -0.277009   -2.179800
H      4.523300   -1.985160   -0.842383
H      3.440442   -1.709386    0.530985
H      0.643339   -0.074634   -1.844669
H      0.363356    1.356974   -0.775451
H      0.897545   -1.534320    0.177502
H      0.585282   -0.166108    1.238601
H     -1.405436   -1.454671    0.880273
H     -1.376244   -1.161260   -0.937291
H     -1.616626    1.213054   -0.668157
H     -1.587600    1.092466    1.100770
H     -5.268126   -1.533740    0.575210
H     -6.003581   -0.680332    1.934735
H     -5.818526    1.388246   -1.752145
H     -5.776018   -0.353185   -2.059245
H     -5.933725    2.356289    0.484956
H     -7.214523    1.485869    1.484707
H     -7.513565    1.933905   -0.215846
H     -7.841380   -0.950123    0.724132
H     -7.191041   -1.474123   -0.899981
H     -8.223549    0.047237   -0.783384
