78

C     -0.983576   -2.528017    0.272502
C     -1.632052   -3.729528    0.521961
C     -1.995012   -4.562723   -0.515114
C     -1.688420   -4.155900   -1.792232
C     -1.041987   -2.957417   -2.033579
C     -0.680146   -2.121939   -0.996862
C      0.001449   -0.850108   -1.329460
C     -0.796246   -0.173092   -2.421366
C     -2.208967   -0.122517   -1.940418
N     -2.419362    0.501103   -0.676068
C     -3.595637   -0.145918   -0.069975
C     -4.756336    0.298867   -0.966309
C     -4.838996    1.809632   -0.875856
C     -5.184238    2.147797    0.513257
C     -6.600937    2.097663    0.904518
C     -7.002056    2.379338    2.187788
C     -8.338182    2.329579    2.522963
C     -9.339002    2.002674    1.620161
C     -8.918230    1.725193    0.344982
C     -7.575495    1.768491   -0.017468
F    -10.643933    1.961756    1.990307
O     -4.317392    2.466998    1.342281
C     -1.338842    0.666471    0.178863
C     -0.004414    0.120862   -0.181176
O      1.311143   -1.120914   -1.731016
C      2.277707   -1.732530   -0.964408
C      3.650637   -1.997879   -1.498899
C      4.505634   -2.628940   -0.481609
C      4.841499   -1.967871    0.785712
C      5.646723   -0.729037    0.837408
C      5.063575    0.485775    0.231557
C      6.041124    1.665875    0.319826
C      6.373588    1.947597    1.732515
C      7.342859    3.136277    1.815351
C      8.579861    2.738037    1.037675
O      1.986992   -2.074243    0.208652
Cl    -2.825410   -6.095335   -0.213526
H     -0.722542   -1.923959    1.102516
H     -1.857000   -4.023790    1.544606
H     -1.980244   -4.821831   -2.607609
H     -0.842917   -2.726586   -3.068851
H     -0.455500    0.878097   -2.579469
H     -0.784389   -0.743664   -3.376680
H     -2.784433    0.424061   -2.743810
H     -2.659456   -1.131603   -1.925902
H     -3.746623    0.294259    0.927716
H     -3.512638   -1.238670   -0.070717
H     -4.565873   -0.095238   -1.965631
H     -5.700935   -0.168032   -0.596118
H     -5.571960    2.250958   -1.556709
H     -3.811326    2.254466   -1.048018
H     -6.229726    2.636548    2.920502
H     -8.645398    2.552656    3.539737
H     -9.674680    1.461520   -0.406450
H     -7.302991    1.533502   -1.060102
H     -1.201802    1.782098    0.345779
H     -1.597040    0.300374    1.209748
H      0.702085    0.951489   -0.488234
H      0.498093   -0.366408    0.676284
H      3.423985   -2.821056   -2.314451
H      4.088509   -1.170818   -2.032131
H      3.994088   -3.652758   -0.265825
H      5.464241   -3.019010   -0.993334
H      3.891981   -1.724169    1.398218
H      5.373723   -2.780145    1.419412
H      6.708975   -0.911446    0.473474
H      5.755426   -0.490623    1.964233
H      4.146227    0.845868    0.772761
H      4.772935    0.444520   -0.824190
H      5.581071    2.582175   -0.143947
H      6.957385    1.395264   -0.261155
H      6.913755    1.075774    2.172810
H      5.472200    2.127002    2.321381
H      7.575737    3.378363    2.884350
H      6.877552    4.037629    1.387356
H      8.466284    3.221833    0.022755
H      8.607545    1.654001    0.940442
H      9.477752    3.171266    1.549602
