54

C      1.617188    0.062144    0.344544
C      0.517715   -0.444046   -0.565044
C     -0.511319   -1.214012    0.232059
C     -1.231518   -0.217534    1.059446
C     -2.701911   -0.035968    0.824780
C     -3.191556   -0.944908   -0.233506
C     -4.004050   -0.578664   -1.172184
C     -4.507473    0.785651   -1.271672
C     -4.020987    1.690832   -0.237393
C     -3.201235    1.327368    0.715022
Br    -4.644492    3.517119   -0.313249
O     -5.293637    1.126899   -2.181942
C     -2.630707   -2.370856   -0.231678
C     -1.205937   -2.105214   -0.702088
F     -2.564649   -2.873729    1.039431
C     -3.441880   -0.570735    2.099013
C     -0.536510    1.142290    1.138878
C      0.948575    1.087762    1.201256
O     -0.952163    1.712295    2.379016
F     -1.109551   -0.687070    2.390426
C      1.247972   -1.159274   -1.612350
C      2.295412   -0.087993   -1.982483
C      2.557169    0.651270   -0.681958
C      3.995345    0.423341   -0.364891
O      4.456954   -0.705474   -0.333043
C      4.934670    1.539252   -0.074031
O      6.188032    1.043421    0.182556
O      2.287562    2.017162   -0.821521
C      2.331366   -0.987899    1.104476
H      0.020437    0.444451   -1.000469
H      0.139134   -1.900369    0.887493
H     -4.317003   -1.342724   -1.917419
H     -2.925310    2.092855    1.416483
H     -3.196820   -3.004200   -0.910988
H     -1.226804   -1.737160   -1.760124
H     -0.679420   -3.091112   -0.751963
H     -2.839541   -1.299643    2.634478
H     -4.404270   -1.013379    1.831542
H     -3.626142    0.264704    2.806710
H     -0.881889    1.837764    0.373384
H      1.318258    2.092555    0.839449
H      1.315050    1.049847    2.269483
H     -0.541367    1.256133    3.135249
H      0.615401   -1.366119   -2.499445
H      1.727861   -2.098539   -1.332556
H      1.762059    0.609859   -2.663211
H      3.187492   -0.528076   -2.423666
H      4.560734    2.006589    0.882377
H      4.903081    2.342175   -0.826479
H      6.907875    1.428907   -0.361774
H      2.926184    2.577789   -0.319001
H      3.239595   -0.539117    1.569242
H      2.630711   -1.822857    0.484862
H      1.756309   -1.403765    1.962545
