46

C     -0.968632   -2.542814    1.028402
C     -1.585782   -1.320474    1.001999
C     -0.896726   -0.044918    0.951013
C     -1.685753    0.933111    0.197725
C     -2.194364    0.728913   -1.063204
C     -2.934464    1.707404   -1.729968
C     -3.182056    2.916906   -1.144668
C     -2.686010    3.151249    0.117911
C     -1.960513    2.184098    0.763946
C      0.539669   -0.180150    0.470540
C      1.267340    1.126839    0.592704
C      2.690324    1.008765    0.168189
C      2.959816    0.584011   -1.224758
C      4.474031    0.587997   -1.469762
C      5.179563   -0.348447   -0.538630
N      0.468029   -0.638022   -0.903974
O     -0.771120    0.400403    2.291339
C     -2.991787   -1.360400    1.020697
C     -3.699023   -2.541044    1.062283
C     -3.032062   -3.748337    1.087416
C     -1.660794   -3.739062    1.070120
H      0.093838   -2.613089    1.022621
H     -2.020712   -0.217667   -1.551472
H     -3.321815    1.518202   -2.721484
H     -3.760582    3.677297   -1.669941
H     -2.875588    4.103691    0.590298
H     -1.587224    2.395273    1.745981
H      1.045195   -0.885350    1.144030
H      1.301887    1.341069    1.706872
H      0.736716    1.955575    0.067951
H      3.264507    0.298934    0.844537
H      3.251764    1.986805    0.357111
H      2.631310   -0.477230   -1.347941
H      2.511435    1.222276   -1.987512
H      4.887766    1.588587   -1.347016
H      4.644355    0.251943   -2.509801
H      5.250229   -0.009731    0.494285
H      4.747785   -1.387111   -0.609444
H      6.224786   -0.457430   -0.915636
H      0.335184    0.145563   -1.546854
H     -0.073522   -1.485878   -1.047464
H     -1.653228    0.588059    2.690791
H     -3.559513   -0.446889    1.002441
H     -4.775915   -2.586319    1.077013
H     -3.532379   -4.705281    1.120141
H     -1.095963   -4.667325    1.088757
