35

C     -1.157249    0.180757   -0.852357
C     -0.335710   -0.982882   -0.511818
N      1.113835   -0.833674   -0.562330
C      1.973305   -1.918945   -0.242868
C      3.412787   -1.549058   -0.339554
C      3.928916   -0.499462    0.569510
C      3.339397    0.835338    0.453549
O      2.406978    1.284900    1.389299
O      3.624656    1.662462   -0.481858
O     -0.750865   -2.098538   -0.180662
C     -2.288354    0.455347    0.092912
C     -3.014631    1.690825   -0.418462
O     -3.529317    1.515717   -1.700609
C     -1.840111    0.749172    1.502981
C     -3.299047   -0.685490    0.047847
O     -0.406966    1.327646   -1.095481
H     -1.634282   -0.058435   -1.847563
H      1.476002    0.088478   -0.859184
H      1.809373   -2.325645    0.782386
H      1.774027   -2.810226   -0.908817
H      4.066681   -2.483034   -0.280170
H      3.671780   -1.183779   -1.393392
H      3.971401   -0.827492    1.641576
H      5.025644   -0.363151    0.283458
H      2.326880    2.282781    1.568840
H     -3.714189    2.105600    0.306026
H     -2.212710    2.477430   -0.545881
H     -3.583313    0.591485   -1.999005
H     -0.755159    0.898728    1.611498
H     -2.321277    1.684436    1.916427
H     -2.233873   -0.085870    2.152386
H     -4.292508   -0.252325    0.275816
H     -3.318980   -1.137517   -0.955492
H     -3.062012   -1.479700    0.812621
H     -0.171104    1.744119   -0.231629
