75

C     -0.611266    0.529286   -0.045331
C     -1.600959    1.218176   -0.950371
C     -2.766152    0.321887   -1.129685
C     -3.571358    0.531200    0.177506
C     -4.637344   -0.510703    0.200962
C     -5.504164   -0.213761   -0.985889
C     -6.678168   -0.801484   -1.060839
C     -7.083258   -1.705983    0.005834
O     -7.645284   -2.789510   -0.262445
C     -6.770045   -1.220699    1.380196
C     -5.381194   -0.637766    1.485700
C     -5.038938    0.738244   -2.054016
C     -3.589405    0.628145   -2.345394
C     -4.062624   -1.906243   -0.099371
C     -2.728453    0.760552    1.336353
C     -1.282962    0.358783    1.262259
O     -3.248793    0.178348    2.481269
C     -0.780384    1.578166   -2.115508
C      0.342378    2.334599   -1.379388
C      0.520270    1.535948   -0.076910
C      1.859687    0.936265   -0.169341
C      2.863385    1.188899    0.876109
O      4.096033    0.538377    0.617652
C      4.841124    0.791566   -0.518819
C      6.117465    0.170531   -0.865363
N      6.616676   -0.770170    0.075788
C      7.027059   -0.223340    1.327348
C      8.264173    0.624457    1.095760
C      5.922023   -2.014090    0.132916
C      6.545154   -2.921761    1.157819
O      4.365512    1.639163   -1.324663
O      2.144420    0.234118   -1.101187
O      0.383785    2.364755    1.042741
C     -0.166787   -0.824069   -0.528026
H     -1.896450    2.154679   -0.428809
H     -2.463746   -0.742804   -1.196595
H     -4.120733    1.498828   -0.059278
H     -7.323982   -0.605086   -1.925173
H     -6.944177   -2.009688    2.140081
H     -7.521383   -0.418117    1.657069
H     -4.838225   -1.376475    2.164600
H     -5.492678    0.351982    2.012126
H     -5.270085    1.768953   -1.717454
H     -5.602336    0.453569   -2.973656
H     -3.242662    1.563313   -2.856197
H     -3.432611   -0.167717   -3.131730
H     -4.002930   -2.059152   -1.173778
H     -4.830521   -2.646612    0.272208
H     -3.161771   -2.112912    0.483017
H     -2.692636    1.868910    1.597421
H     -1.215854   -0.693707    1.635545
H     -0.689409    0.948072    2.023264
H     -3.196990    0.719820    3.283813
H     -1.285938    2.272222   -2.829017
H     -0.351167    0.768717   -2.700633
H     -0.017103    3.343210   -1.073920
H      1.249358    2.405956   -1.967870
H      3.008697    2.281871    1.058511
H      2.481163    0.783734    1.857044
H      6.900653    0.953779   -1.045674
H      6.006005   -0.351402   -1.844865
H      7.339930   -1.056005    1.991489
H      6.230660    0.321224    1.861925
H      8.024601    1.581374    0.588173
H      8.991808    0.013715    0.554266
H      8.693448    0.863891    2.086602
H      6.075547   -2.521088   -0.864164
H      4.838191   -1.875182    0.257705
H      7.644822   -2.837163    1.047859
H      6.288329   -3.979327    0.868778
H      6.197416   -2.735139    2.175936
H      1.014244    2.185217    1.757292
H     -0.930609   -1.590937   -0.201012
H      0.063928   -0.889427   -1.588706
H      0.713587   -1.096982    0.131946
