69

C     -1.996295    0.310443   -0.494283
C     -0.737578    0.273391    0.273320
C      0.283068    0.749228   -0.737888
C      1.632708    0.909869   -0.205818
C      2.129863   -0.536383   -0.041074
C      3.581516   -0.662310    0.215463
C      4.389154    0.519858   -0.125011
C      5.687038    0.360402   -0.309569
C      6.382845   -0.922648   -0.198074
O      7.592612   -1.053282    0.015634
C      5.541130   -2.133059   -0.359110
C      4.109953   -1.804495   -0.663815
C      3.830774    1.885527   -0.279730
C      2.519149    1.740241   -1.066310
C      3.914208   -1.059299    1.637752
C      1.245883   -1.149168    0.992517
C     -0.224596   -1.069481    0.717247
O      1.452299   -0.557640    2.264005
C     -0.400689    1.829421   -1.454431
C     -1.625154    0.983085   -1.877732
C     -0.867237    1.222992    1.444288
C     -3.023282    1.291930   -0.006541
C     -4.432478    0.855780    0.051012
O     -5.306953    1.927370    0.394903
C     -5.359370    3.033105   -0.430185
C     -6.256830    4.173619   -0.108994
O     -4.621613    3.019197   -1.444299
O     -2.784527    2.423921    0.340130
O     -2.551573   -0.914442   -0.803053
C     -3.024336   -1.935061   -0.078067
C     -3.574932   -3.176866   -0.735249
C     -4.040216   -4.169977    0.305495
O     -3.030989   -1.906360    1.148905
H      0.333414   -0.127739   -1.482976
H      1.679973    1.335550    0.835550
H      1.855869   -1.043666   -1.015037
H      6.298402    1.243234   -0.564490
H      5.633332   -2.837509    0.493010
H      5.947505   -2.677290   -1.250913
H      3.947877   -1.550064   -1.733954
H      3.481624   -2.690642   -0.452223
H      4.492203    2.575995   -0.792693
H      3.542244    2.261368    0.721284
H      2.731113    1.294344   -2.053032
H      2.048151    2.709564   -1.217185
H      3.319120   -1.918590    1.999969
H      4.972550   -1.366948    1.752080
H      3.758370   -0.239916    2.368231
H      1.451392   -2.265584    1.088036
H     -0.572816   -1.867013    0.031705
H     -0.687255   -1.210074    1.751935
H      0.895101   -1.103085    2.887880
H      0.103953    2.125525   -2.378781
H     -0.758886    2.644996   -0.836513
H     -2.418705    1.592671   -2.255630
H     -1.261287    0.185773   -2.539970
H     -0.150033    1.024447    2.268329
H     -1.865575    1.061397    1.898362
H     -0.656593    2.258409    1.129690
H     -4.596134    0.131632    0.904062
H     -4.780691    0.327324   -0.854920
H     -5.855469    5.126785   -0.502291
H     -7.259481    3.997106   -0.533027
H     -6.340961    4.197067    1.006760
H     -4.457591   -2.839801   -1.311048
H     -2.784515   -3.627541   -1.360841
H     -4.184501   -5.138795   -0.201710
H     -4.985873   -3.792697    0.771058
H     -3.309381   -4.255142    1.149832
