77

C     -5.522711    2.387727    0.819131
C     -5.246753    1.029003    0.111177
C     -5.796025    1.231201   -1.250615
C     -6.612376    0.094214   -1.823051
C     -7.722563   -0.112058   -0.822642
O     -8.925928   -0.026164   -1.069047
C     -7.217253   -0.434113    0.508672
C     -6.088282    0.101295    0.898401
C     -5.492247   -0.226902    2.256472
C     -4.375955   -1.162256    1.837769
C     -3.352601   -0.388470    1.081151
C     -2.506287   -1.457892    0.358084
C     -1.773670   -2.299558    1.365084
C     -0.520436   -1.515417    1.685917
C     -0.089630   -1.178986    0.244914
O      0.482943   -2.364173   -0.224751
C      0.918524   -0.126771    0.261205
O      0.736525    1.000162    0.704653
C      2.278436   -0.384972   -0.285160
O      3.128813    0.764028   -0.121518
C      4.421107    0.646964   -0.590814
O      4.834950   -0.403794   -1.131678
C      5.350166    1.790028   -0.455019
C      6.724313    1.549725   -0.973711
C      7.474410    0.437924   -0.319754
C      8.857075    0.305760   -0.945269
C      9.787372   -0.125582    0.149484
C      8.895535   -0.330928    1.376840
C      7.842044    0.755150    1.119726
C     -1.379580   -0.864757   -0.441085
C     -1.361014   -1.607893   -1.785200
C     -1.571924    0.576534   -0.753580
C     -3.064793    0.721976   -1.128983
O     -3.405511   -0.306105   -1.951216
C     -3.784706    0.720111    0.219865
H     -6.617821    2.423070    0.966288
H     -4.924465    2.400624    1.723810
H     -5.261089    3.193488    0.096131
H     -6.537658    2.100589   -1.292560
H     -5.042667    1.546348   -2.007313
H     -7.034306    0.469395   -2.783725
H     -6.085376   -0.850605   -1.922754
H     -7.785041   -1.107713    1.169140
H     -5.064902    0.651520    2.731021
H     -6.224704   -0.778529    2.870495
H     -3.983255   -1.579883    2.785900
H     -4.753683   -1.958790    1.157415
H     -2.613365   -0.054513    1.882874
H     -3.154589   -2.140419   -0.228616
H     -1.427851   -3.216425    0.819398
H     -2.338429   -2.629523    2.222172
H      0.262983   -2.124127    2.165263
H     -0.686761   -0.601127    2.250627
H      1.257498   -2.149312   -0.791589
H      2.250590   -0.531857   -1.392793
H      2.762541   -1.221693    0.223169
H      5.383446    2.151018    0.614269
H      4.956343    2.689493   -1.013639
H      6.658316    1.387535   -2.064809
H      7.298639    2.488273   -0.830447
H      7.004137   -0.543283   -0.338903
H      8.799783   -0.502727   -1.704056
H      9.167019    1.217168   -1.464456
H     10.336181   -1.041889   -0.102418
H     10.500386    0.690324    0.454249
H      9.441914   -0.168907    2.306246
H      8.445073   -1.344726    1.281178
H      6.999479    0.598325    1.807632
H      8.347479    1.716732    1.217039
H     -0.461552   -2.265780   -1.877851
H     -1.260991   -0.899073   -2.641764
H     -2.220495   -2.301706   -1.887000
H     -0.985491    0.876382   -1.633978
H     -1.452614    1.261795    0.113440
H     -3.084493    1.735930   -1.599463
H     -3.479571   -0.037682   -2.880325
H     -3.312607    1.657268    0.675250
