43

C      0.358966   -0.307746   -0.859222
C      0.452502    0.983962   -0.147943
C     -0.433800    1.441858    0.774431
C     -1.582600    0.601604    1.126195
C     -1.572283   -0.760698    0.523461
C     -0.224956   -1.284613    0.114634
C      0.693232   -1.604425    1.239705
C      1.935424   -2.236229    0.594218
C      2.620033   -1.159770   -0.187669
C      1.774069   -0.546409   -1.258784
O      2.189192    0.815709   -1.519078
C      1.565026    1.630704   -0.579969
C      1.803741    2.880152   -0.014091
C      0.945053    3.408853    0.929484
C     -0.178032    2.680535    1.321634
O      2.917090    3.586106   -0.412253
O      3.088050   -0.184255    0.710217
O     -0.458485   -2.478874   -0.594045
N     -2.405825   -0.838684   -0.661808
C     -3.798898   -0.787140   -0.398969
C     -1.960329    0.070934   -1.693820
C     -0.539676   -0.176622   -2.065647
H     -1.726808    0.580684    2.232148
H     -2.500758    1.129208    0.735142
H     -1.998868   -1.474899    1.256637
H      0.229197   -2.366817    1.891441
H      1.033490   -0.723026    1.809938
H      1.554560   -2.990763   -0.152105
H      2.616525   -2.659116    1.325816
H      3.532603   -1.570066   -0.681193
H      1.858553   -1.077387   -2.206129
H      1.097197    4.375161    1.390884
H     -0.880876    3.050865    2.057183
H      3.563332    3.228528   -1.098472
H      3.660076   -0.655079    1.365736
H     -1.302841   -2.885807   -0.277200
H     -4.320245   -0.465400   -1.343403
H     -4.110877   -0.081887    0.383539
H     -4.188446   -1.817093   -0.199120
H     -2.594037   -0.137837   -2.590818
H     -2.147309    1.130712   -1.437090
H     -0.407042   -1.041893   -2.737737
H     -0.154922    0.716961   -2.638328
