35

C     -1.362585    0.046405   -0.794545
O     -0.516630   -0.020500    0.241101
C      0.748321   -0.056284    0.603907
C      1.835495   -0.025470   -0.218690
C      3.148861   -0.068626    0.268582
C      3.379748   -0.144658    1.615468
C      2.308341   -0.177776    2.476834
C      1.023386   -0.134762    1.985478
C      4.283893   -0.030122   -0.706856
C      1.627223    0.056509   -1.679758
C     -2.384071    1.187379   -0.704523
C     -3.145046    1.015048    0.592324
N     -3.963100   -0.187049    0.431131
C     -3.055148   -1.315140    0.446816
C     -2.165518   -1.278832   -0.778153
O     -1.702973    2.382516   -0.728657
H     -0.979714    0.097403   -1.831633
H      4.379456   -0.178261    2.000400
H      2.490489   -0.237554    3.535382
H      0.207640   -0.162222    2.682434
H      5.230107   -0.114274   -0.135094
H      4.246253   -0.902397   -1.406694
H      4.221858    0.932399   -1.234413
H      1.153430   -0.853972   -2.036495
H      2.639849    0.075647   -2.196690
H      1.176073    1.011057   -1.950704
H     -3.053527    1.091806   -1.561546
H     -2.404291    0.832535    1.381896
H     -3.775475    1.901567    0.805996
H     -4.398169   -0.172460   -0.523112
H     -2.401042   -1.258921    1.345461
H     -3.602521   -2.264263    0.419795
H     -2.696016   -1.437329   -1.710973
H     -1.408631   -2.079682   -0.660194
H     -1.085966    2.470282    0.025727
