65

C     -5.065852    0.081359    1.981298
C     -5.658197    0.871538    2.937838
Cl    -5.527556    0.480820    4.639384
C     -6.373334    1.992467    2.606480
C     -6.454531    2.266526    1.261180
C     -5.866687    1.484179    0.294212
C     -5.144756    0.354948    0.616665
N     -4.529013   -0.511829   -0.329761
C     -4.581325   -0.325195   -1.754059
C     -5.228122    0.707384   -2.379477
C     -5.275627    0.873812   -3.741209
C     -4.650380   -0.024783   -4.571305
C     -3.991652   -1.071480   -3.987246
C     -3.951957   -1.227261   -2.606211
S     -6.055687    1.942409   -1.413730
C     -3.735137   -1.653799    0.095183
C     -2.259825   -1.369190    0.157107
C     -1.967760   -0.279805    1.122134
N     -0.554223    0.055711    1.184580
C      0.264438   -0.985692    1.760141
C      1.650060   -0.999449    1.150968
N      2.159791    0.291222    0.874486
C      3.501743    0.340239    0.404832
C      4.517981   -0.063288    1.461331
N      5.855012    0.015308    0.921951
C      6.580331   -1.006945    0.258852
N      7.482446   -0.369228   -0.643099
C      8.243894   -0.964576   -1.718886
C      7.520205    1.050440   -0.293780
C      6.701954    1.180081    0.969573
O      6.458385   -2.270225    0.428043
C      1.294128    1.200980    0.216699
C     -0.020900    0.522303   -0.076307
H     -4.540303   -0.777399    2.348537
H     -6.851166    2.635741    3.326430
H     -7.018984    3.158115    0.927193
H     -5.817152    1.732968   -4.180227
H     -4.675103    0.088711   -5.637433
H     -3.484184   -1.805321   -4.605525
H     -3.409107   -2.066624   -2.216587
H     -3.990603   -2.537054   -0.548172
H     -3.998893   -1.953478    1.152564
H     -1.813435   -1.063245   -0.817211
H     -1.775497   -2.338985    0.427852
H     -2.496722    0.636871    0.817892
H     -2.266216   -0.568134    2.160769
H      0.361054   -0.784269    2.842151
H     -0.165758   -1.983690    1.625983
H      2.289880   -1.535500    1.880015
H      1.627821   -1.618689    0.239264
H      3.627331   -0.293147   -0.498512
H      3.707246    1.388626    0.074439
H      4.459097    0.638206    2.317464
H      4.275456   -1.076325    1.834997
H      8.988229   -1.648054   -1.252278
H      8.703811   -0.181558   -2.337761
H      7.578801   -1.618149   -2.355834
H      8.552589    1.409713   -0.139373
H      7.064634    1.651389   -1.099477
H      6.117020    2.125346    0.960782
H      7.318561    1.090543    1.890987
H      1.118991    2.104998    0.840310
H      1.799834    1.544726   -0.721709
H      0.098653   -0.274044   -0.825836
H     -0.723736    1.328729   -0.425019
