36

C     -3.425005    1.577762   -0.221497
C     -3.097205    0.243014   -0.155651
N     -1.781553   -0.158249    0.219077
C     -0.544582    0.201372   -0.416147
N      0.523510    0.044260    0.469931
C      1.886255    0.509363    0.328008
C      2.729050   -0.547232   -0.364937
N      4.069008   -0.024818   -0.481078
C      4.956986   -0.961342   -1.151794
C      4.539014    0.329763    0.826009
C      0.033796   -0.692891    1.613746
C     -1.409618   -1.018140    1.325408
O     -0.497870    0.599265   -1.618814
C     -4.053869   -0.702980   -0.455864
C     -5.313178   -0.290654   -0.813785
C     -5.640479    1.046123   -0.879385
C     -4.673454    1.996837   -0.576280
Cl    -5.078455    3.696963   -0.656788
H     -2.667613    2.304576    0.015997
H      1.949738    1.473916   -0.214668
H      2.352096    0.666901    1.344389
H      2.774578   -1.475359    0.257311
H      2.289964   -0.806107   -1.363909
H      4.472287   -1.951349   -1.223330
H      5.914258   -1.075878   -0.610397
H      5.094840   -0.601386   -2.186672
H      4.113813   -0.296919    1.632127
H      5.652192    0.363794    0.871425
H      4.224852    1.385851    1.042347
H      0.650417   -1.606504    1.704657
H      0.126092   -0.042275    2.504999
H     -2.068602   -0.752200    2.202140
H     -1.552000   -2.098497    1.063084
H     -3.829284   -1.757375   -0.413961
H     -6.100806   -0.997375   -1.059367
H     -6.619172    1.417772   -1.156675
