36

C      0.129240   -0.409970    0.247638
C     -0.558325    0.870716    0.368797
C     -0.288989    2.086128    0.992177
C     -1.167570    3.138476    0.927761
C     -2.368807    3.036767    0.234764
C     -2.661076    1.846608   -0.391250
C     -1.750978    0.804476   -0.305783
C     -1.887304   -0.555705   -0.925356
N     -2.674584   -1.453567   -0.143852
C     -2.709022   -2.747030   -0.782197
C     -0.449040   -1.037972   -0.987080
C      1.599809   -0.309119    0.259011
C      2.335774   -0.030403   -0.866861
C      3.734473    0.056756   -0.803058
C      4.412286   -0.132204    0.379266
Cl     6.172877   -0.020957    0.460040
C      3.672499   -0.411182    1.504802
C      2.299799   -0.495442    1.435545
Cl     4.563748   -0.648577    3.008465
H      0.000000    0.000000    0.000000
Cl     0.000000    0.000000    0.000000
H     -0.238501   -1.045346    1.111492
H      0.644052    2.154972    1.527192
H     -0.959903    4.085636    1.412944
H     -3.057596    3.853275    0.181305
H     -3.590324    1.770320   -0.926677
H     -2.283751   -0.420213   -1.953790
H     -2.285914   -1.572156    0.815264
H     -2.356879   -3.517372   -0.072302
H     -2.088865   -2.775438   -1.691208
H     -3.761442   -2.946238   -1.089704
H      0.041027   -0.719948   -1.924049
H     -0.370850   -2.143847   -0.837513
H      1.853921    0.126934   -1.806821
H      4.320608    0.275446   -1.682339
H      1.729605   -0.713821    2.323378
