34

C      1.893859   -1.743817   -0.620579
C      1.500365   -0.543176   -0.074540
C      2.472727    0.436989    0.164975
C      3.776876    0.146979   -0.159701
C      4.544435    1.319029    0.189705
C      3.790910    2.274589    0.694497
C      2.400564    1.806425    0.727729
C      4.161274   -1.077804   -0.714007
C      3.201642   -2.023402   -0.941639
O      0.206279   -0.255716    0.247500
C     -0.833284   -1.173832    0.043677
C     -2.116759   -0.530554    0.507262
C     -2.269048    0.792383   -0.226092
N     -3.479673    1.374567    0.362795
C     -4.572973    0.583230   -0.109894
C     -4.267899   -0.855938   -0.319316
O     -3.191163   -1.359880    0.344732
H      1.158276   -2.540156   -0.823844
H      5.613627    1.412321    0.056776
H      4.115475    3.269376    1.043184
H      1.974378    1.769455    1.752809
H      1.748088    2.464681    0.084872
H      5.206810   -1.210832   -0.934252
H      3.451065   -2.980714   -1.366759
H     -0.938820   -1.496888   -1.010972
H     -0.655702   -2.110401    0.640461
H     -2.034176   -0.271110    1.588316
H     -1.381341    1.412390    0.009756
H     -2.408985    0.580205   -1.286649
H     -3.432215    1.258038    1.411802
H     -5.416275    0.722340    0.629362
H     -4.940908    1.053663   -1.055904
H     -5.162405   -1.453828   -0.041248
H     -4.115023   -1.048609   -1.414241
