41

C      0.407294   -1.385757    0.275668
C      1.674112   -1.947742    0.133112
C      2.821060   -1.197170   -0.008961
C      2.687952    0.170450   -0.006201
C      1.423149    0.718883    0.136639
C      0.267363   -0.024350    0.276978
N     -0.817262    0.771352    0.415443
C     -0.315750    2.049990    0.367002
C      1.039774    2.041271    0.196806
C      1.951325    3.225866    0.082212
C      2.325436    3.488786   -1.322742
O      3.183942    4.477390   -1.744367
O      1.818190    2.747002   -2.200881
C     -1.127765    3.290977    0.479541
C     -2.191781    0.475334    0.464053
C     -2.875727   -0.754803    0.195992
C     -3.893839   -1.136814    1.064572
C     -4.647955   -2.268751    0.835101
C     -4.401312   -3.044510   -0.267749
Cl    -5.284721   -4.488996   -0.660200
C     -3.389395   -2.655158   -1.121693
C     -2.634716   -1.530298   -0.899357
O     -2.955023    1.483264    0.796985
O      4.075540   -1.790487   -0.153230
C      4.289985   -3.176487   -0.166929
H     -0.459196   -2.014964    0.421507
H      1.741295   -3.027128    0.136138
H      3.565019    0.832487   -0.114177
H      1.501967    4.112143    0.544326
H      2.881254    2.993861    0.681104
H      2.980508    4.963680   -2.619033
H     -1.581298    3.418310    1.479035
H     -0.519946    4.180785    0.293488
H     -1.921097    3.270193   -0.299745
H     -4.137477   -0.566286    1.954349
H     -5.448248   -2.596508    1.485457
H     -3.173714   -3.240912   -1.995031
H     -1.838972   -1.225452   -1.571031
H      3.700855   -3.575362   -1.028788
H      5.332212   -3.454496   -0.361862
H      3.946961   -3.609596    0.808224
