42

C     -1.188380   -3.710208   -1.546076
S     -0.945537   -2.131514   -2.441374
C      0.231079   -1.145899   -1.549848
C      1.604579   -1.284344   -1.799073
N      2.523531   -0.561936   -1.140807
C      2.112004    0.306982   -0.228604
N      0.824894    0.446329    0.013878
C     -0.180434   -0.242020   -0.603971
N     -1.511505    0.029703   -0.270921
C     -1.787512    0.895450    0.858590
C     -2.945724    0.367532    1.679329
N     -4.114551    0.373031    0.840009
C     -4.872903    1.593994    1.159114
C     -3.856387    0.391148   -0.561018
C     -2.658433   -0.465185   -0.975536
N      3.014804    1.122730    0.526961
C      4.427044    0.982508    0.274218
C      4.878678   -0.439235    0.552912
C      5.224573    1.988720    1.058814
Cl     2.105366   -2.437148   -3.005990
H     -0.291553   -4.337789   -1.728189
H     -1.341267   -3.447749   -0.487089
H     -2.056541   -4.267809   -1.914389
H     -2.120251    1.875819    0.407856
H     -0.888041    1.063880    1.455721
H     -3.036002    1.033992    2.559262
H     -2.672518   -0.658228    2.025223
H     -5.644847    1.315823    1.900768
H     -4.199017    2.340967    1.629850
H     -5.305683    2.028852    0.233524
H     -4.733492   -0.050116   -1.085921
H     -3.693023    1.400091   -0.987525
H     -2.569513   -0.255987   -2.083964
H     -2.869264   -1.526782   -0.869468
H      2.701330    1.803613    1.241281
H      4.571418    1.227896   -0.815766
H      5.829186   -0.420964    1.123682
H      4.088885   -0.945816    1.153437
H      4.971306   -0.984634   -0.411029
H      5.534741    1.597858    2.053856
H      6.184585    2.202625    0.512934
H      4.654378    2.923818    1.245339
