53

H      0.000000    0.000000    0.000000
C     -6.782553   -0.622304    0.393075
C     -7.380540    0.517747    0.901559
C     -6.652394    1.683284    0.928325
C     -5.368599    1.696934    0.459042
C     -4.723551    0.572446   -0.062509
C     -5.474952   -0.573415   -0.076097
S     -4.478432   -1.820695   -0.770805
O     -4.163051   -2.896362    0.232123
O     -5.007660   -2.350503   -2.046556
N     -3.035952   -0.852371   -1.014631
C     -3.390386    0.429951   -0.574554
O     -2.548301    1.409163   -0.638446
C     -1.807848   -1.399428   -1.571295
C     -0.911661   -2.034675   -0.566816
C     -0.363709   -1.159341    0.494599
C      0.530611   -0.063341   -0.007409
N      1.008885    0.756806    1.089867
C      1.908253    0.065044    1.958591
C      3.279898    0.712174    2.048840
N      3.735212    0.971536    0.702571
C      4.965006    0.444017    0.236971
N      5.741022   -0.330186    1.038414
C      6.906932   -0.829789    0.599110
C      7.371074   -0.584366   -0.675058
C      6.574021    0.213120   -1.502031
N      5.421023    0.680587   -1.001940
C      2.892747    1.777731   -0.132685
C      1.563451    1.995160    0.571634
Cl     0.000000    0.000000    0.000000
H     -7.324967   -1.566712    0.353854
H     -8.398660    0.517472    1.273850
H     -7.127705    2.584466    1.330982
H     -4.837461    2.642394    0.504004
H     -1.206511   -0.601706   -2.084690
H     -2.105491   -2.096111   -2.379422
H     -1.381944   -2.913754   -0.059264
H     -0.034764   -2.461571   -1.124415
H      0.235496   -1.798555    1.178343
H     -1.132377   -0.684136    1.138193
H     -0.019906    0.578673   -0.700062
H      1.421130   -0.462841   -0.550377
H      2.040828   -0.960841    1.606886
H      1.503732    0.079825    3.012381
H      3.264504    1.624646    2.680380
H      3.938100   -0.025733    2.554924
H      7.488815   -1.441606    1.272596
H      8.314942   -0.983504   -1.041665
H      6.912633    0.424874   -2.509323
H      2.768822    1.260452   -1.101806
H      3.307464    2.778239   -0.343862
H      0.851148    2.429119   -0.160103
H      1.713630    2.667985    1.419746
