30

C     -1.647395    1.329108   -0.829671
C     -1.817481    0.183637    0.133197
C     -0.720441    0.112368    1.157038
C      0.635055   -0.066065    0.596547
C      1.397239    1.026501    0.240533
C      2.684639    0.876492   -0.285834
C      3.211253   -0.384652   -0.456072
O      4.490445   -0.531715   -0.979249
C      2.473048   -1.475774   -0.109926
O      3.038570   -2.738056   -0.296205
C      1.209170   -1.305966    0.406079
N     -3.079836    0.326446    0.842380
N     -3.141012    1.520604    1.571070
C     -1.902684   -1.046258   -0.688184
O     -0.838005   -1.403130   -1.477530
O     -2.917606   -1.763470   -0.679892
H     -1.047890    1.002798   -1.702316
H     -1.241333    2.236585   -0.383628
H     -2.663925    1.570062   -1.217806
H     -0.991903   -0.747926    1.837891
H     -0.793873    1.011220    1.808812
H      1.050201    2.041345    0.345820
H      3.264294    1.746434   -0.558027
H      5.041134    0.277828   -1.237215
H      3.945927   -2.887212   -0.665615
H      0.640997   -2.184095    0.678493
H     -3.161754   -0.490088    1.492401
H     -2.381461    2.192111    1.309244
H     -4.090723    1.925650    1.386948
H     -0.644650   -2.354781   -1.773518
