44

C      0.523360    0.137411   -0.926804
N      1.427354   -0.085899    0.143816
C      0.926747   -0.570239    1.334266
C     -0.576985   -0.481448    1.470735
C     -1.337214   -0.921990    0.241705
C     -0.454546   -0.990328   -0.986010
C      0.190183   -2.320111   -1.105684
C     -2.294931    0.199170   -0.064800
C     -1.644980    1.376501   -0.479501
C     -0.200736    1.429170   -0.595484
O      0.396957    2.489536   -0.427883
C     -2.400462    2.478191   -0.783947
C     -3.765300    2.436066   -0.689487
C     -4.386445    1.262535   -0.277905
C     -3.637373    0.129268    0.037923
O     -5.761906    1.228866   -0.184277
C     -2.084109   -2.205789    0.499015
C      2.739935    0.048592   -0.200976
C      3.806164    0.077051    0.820254
C      5.268861    0.199952    0.380714
C      4.591456    1.439376    0.833767
H      1.065711    0.220639   -1.875728
H      1.338175   -0.029619    2.217190
H      1.253206   -1.641864    1.474968
H     -0.874447    0.525369    1.825572
H     -0.856316   -1.184804    2.291258
H     -1.157352   -0.840117   -1.872943
H     -0.155385   -3.072900   -0.384207
H     -0.016147   -2.782277   -2.132156
H      1.300446   -2.274857   -1.083760
H     -1.860963    3.379492   -1.101392
H     -4.380174    3.309037   -0.929880
H     -4.139956   -0.790210    0.351036
H     -6.294295    1.469216    0.655526
H     -2.417601   -2.711309   -0.404594
H     -1.409232   -2.893430    1.099530
H     -2.887536   -1.969788    1.238954
H      3.046801   -0.768371   -0.927624
H      2.848045    0.967222   -0.856845
H      3.693173   -0.299530    1.851267
H      5.434493    0.106622   -0.724346
H      6.076267   -0.157784    1.034111
H      4.264699    2.188722    0.055962
H      4.802357    1.894662    1.795654
