39

C     -1.838692    1.541206    0.539710
C     -2.513021    2.766893    0.502452
C     -2.058098    3.777413   -0.287287
C     -0.938110    3.587254   -1.044228
C     -0.275026    2.369848   -1.002628
C     -0.699551    1.327062   -0.220964
C     -0.017721   -0.016542   -0.165476
C      1.125861    0.007411   -1.112149
C      2.139635   -1.096910   -0.938826
N      2.572077   -1.245196    0.390760
C      3.911162   -0.793096    0.663192
C      1.654461   -1.046975    1.443990
C      0.566883   -0.085061    1.232190
C     -1.051386   -1.027525   -0.388287
C     -0.909431   -2.492376   -0.391518
C     -2.257659   -3.196872   -0.589346
O     -2.210320   -0.627108   -0.603983
O     -3.653312    2.962992    1.271925
H     -2.271736    0.807384    1.197439
H     -2.616113    4.715699   -0.284477
H     -0.587719    4.398366   -1.666919
H      0.592970    2.311925   -1.639682
H      1.716993    0.943394   -0.834413
H      0.826705    0.013110   -2.162391
H      1.865766   -2.029372   -1.439401
H      3.043253   -0.722392   -1.532262
H      4.035516   -0.774024    1.771808
H      4.123324    0.218723    0.279453
H      4.626096   -1.554825    0.294943
H      2.255069   -0.673086    2.331592
H      1.322591   -2.062980    1.810399
H     -0.253902   -0.276643    1.964113
H      0.947756    0.937172    1.465523
H     -0.455158   -2.940898    0.482307
H     -0.336635   -2.772128   -1.322472
H     -2.797500   -2.653781   -1.392032
H     -2.880734   -3.110726    0.324517
H     -2.113488   -4.256371   -0.801002
H     -4.590807    2.769035    0.969966
