54

C      4.925060    0.753075   -0.477035
C      4.530148   -0.362665    0.252321
C      3.149091   -0.836790    0.226822
C      2.105925   -0.161851   -0.580029
N      0.830516   -0.673549   -0.285137
C     -0.254267   -0.196186   -1.116437
C     -1.433171   -1.027849   -0.786784
C     -1.977135   -0.534816    0.538553
C     -0.877487   -0.616439    1.534244
C      0.473197   -0.966544    1.041615
C     -2.364428    0.894059    0.424789
C     -1.631277    1.751849   -0.335964
C     -0.419863    1.267558   -1.038166
C     -1.933430    3.094762   -0.492227
C     -3.028606    3.595681    0.151408
C     -3.791425    2.758278    0.928782
C     -3.472293    1.428272    1.069321
O     -4.895345    3.291758    1.569870
C     -3.206978   -1.339210    0.849212
C     -3.241705   -2.639831    0.063424
C     -3.316461   -2.376587   -1.426741
C     -2.538076   -1.091702   -1.769605
O      2.855679   -1.830271    0.901701
C      5.465897   -1.032209    1.012989
C      6.762365   -0.565196    1.019289
C      7.157688    0.531060    0.304982
C      6.221350    1.217876   -0.469042
H      4.160185    1.250826   -1.061520
H      2.338534   -0.474371   -1.648151
H      2.217487    0.953243   -0.521807
H      0.056041   -0.482898   -2.167251
H     -1.069930   -2.069175   -0.600630
H     -0.796738    0.324658    2.158923
H     -1.202601   -1.379955    2.303439
H      1.223269   -0.508631    1.751902
H      0.599818   -2.082320    1.193357
H     -0.375585    1.711792   -2.083682
H      0.429976    1.814239   -0.524236
H     -1.316207    3.718164   -1.105834
H     -3.307400    4.635609    0.062161
H     -4.080794    0.792466    1.691988
H     -5.817671    3.308485    1.130736
H     -4.160737   -0.823387    0.578533
H     -3.235492   -1.596056    1.914846
H     -2.403025   -3.294233    0.358172
H     -4.181504   -3.153920    0.346153
H     -4.335887   -2.343580   -1.804644
H     -2.783746   -3.207603   -1.931005
H     -2.180426   -1.168971   -2.804519
H     -3.300019   -0.279444   -1.656801
H      5.202230   -1.906920    1.597390
H      7.533739   -1.074313    1.615264
H      8.158260    0.904726    0.301023
H      6.533254    2.099034   -1.044701
