45

C      4.259149    0.156905   -1.583389
C      4.114731    0.129266   -0.029860
C      5.301655    0.988739    0.455920
C      4.416441   -1.254507    0.381287
N      2.946196    0.776355    0.367250
C      1.674806    0.344439    0.018868
C      1.270153   -0.898748    0.795915
O      1.228918   -0.471116    2.145351
C     -0.021659   -1.457548    0.319029
O     -1.015743   -0.442402    0.327582
C     -2.301587   -0.789773   -0.108314
C     -2.580910   -2.066564   -0.503302
C     -3.848437   -2.363172   -0.921459
C     -4.800272   -1.369292   -0.932068
C     -4.516359   -0.068234   -0.530744
N     -5.559616    0.923991   -0.572619
C     -5.145395    2.222160   -0.137373
O     -5.721229    3.226528   -0.587044
C     -4.037824    2.352600    0.842769
C     -2.868604    1.596389    0.302463
C     -3.253111    0.229551   -0.113361
H      4.583813    1.192015   -1.852524
H      3.336906   -0.168264   -2.070085
H      5.088695   -0.521681   -1.805562
H      4.949086    2.029660    0.578329
H      6.112641    0.967715   -0.288130
H      5.606096    0.570795    1.435908
H      5.554072   -1.373026    0.251642
H      4.273071   -1.509807    1.444551
H      4.043954   -2.062734   -0.295213
H      3.005039    1.405460    1.161647
H      0.938293    1.143016    0.337535
H      1.464602    0.231036   -1.065565
H      2.029407   -1.676739    0.721066
H      0.739254    0.364065    2.263430
H     -0.375466   -2.275445    0.997764
H      0.051002   -1.882287   -0.709939
H     -1.815592   -2.847041   -0.488939
H     -4.121048   -3.368087   -1.243193
H     -5.812863   -1.584161   -1.258136
H     -6.497617    0.677264   -0.892715
H     -4.393580    1.865417    1.776318
H     -3.788646    3.420477    1.000751
H     -2.061106    1.545963    1.081519
H     -2.451314    2.090821   -0.610047
