51

C     -1.992396   -1.238948    0.513114
C     -1.735223    0.209570    0.426123
C     -0.477319    0.571019    0.281941
C      0.517148   -0.532672    0.226184
N      1.842208   -0.059322   -0.088649
C      2.932685   -0.150768    0.831038
N      4.237301    0.305811    0.545253
C      5.283660    0.174014    1.524376
C      6.046499   -1.105477    1.436837
C      4.539755    0.910172   -0.724091
C      4.981625   -0.128997   -1.740679
O      2.689626   -0.676596    1.963223
C      0.055157   -1.636393   -0.663857
N     -1.375818   -1.788183   -0.713102
C     -1.967208   -1.183097   -1.890830
C     -2.818021    1.169573    0.496189
C     -2.596029    2.538760    0.407651
C     -3.723702    3.341425    0.489329
C     -4.999904    2.825135    0.649361
C     -5.211296    1.467820    0.736213
C     -4.087820    0.675876    0.654480
C     -4.401899   -0.627737    0.749634
C     -5.799254   -0.643498    0.898702
N     -6.250609    0.626591    0.886411
C     -3.380002   -1.678636    0.691345
H     -1.366614   -1.712274    1.332455
H     -0.220888    1.605987    0.212428
H      0.562714   -0.948032    1.274308
H      2.058279    0.372593   -1.011755
H      5.992103    1.049190    1.464188
H      4.796943    0.249121    2.526640
H      6.294435   -1.425816    0.426269
H      5.528264   -1.928414    1.994356
H      7.010037   -0.955753    1.990815
H      5.405705    1.621674   -0.565887
H      3.728253    1.508856   -1.139462
H      4.316650   -1.001789   -1.685626
H      4.790357    0.336688   -2.745769
H      6.049224   -0.347408   -1.703458
H      0.497068   -1.545164   -1.677852
H      0.457232   -2.614093   -0.265504
H     -2.860353   -0.578471   -1.654442
H     -2.216351   -2.013386   -2.611395
H     -1.260390   -0.523062   -2.429220
H     -1.616264    2.888727    0.286812
H     -3.596686    4.431881    0.424088
H     -5.866332    3.460625    0.711219
H     -6.397403   -1.537567    1.004554
H     -7.239133    0.944711    0.976254
H     -3.649981   -2.437284   -0.092724
H     -3.506035   -2.266984    1.657550
