32

C      0.302059    1.638100    0.606402
C      1.172572    2.665574    0.892718
Cl     0.540278    4.177042    1.494527
C      2.529631    2.507492    0.702027
C      3.065774    1.331530    0.223270
C      2.185175    0.306114   -0.061741
C      0.810041    0.449468    0.124578
N     -0.238251   -0.489901   -0.136157
C     -1.575142   -0.051870   -0.138476
C     -2.073695    0.840975   -1.050926
C     -3.388142    1.233113   -1.013630
C     -4.228799    0.734223   -0.055514
C     -3.753620   -0.162549    0.871248
C     -2.427296   -0.563807    0.840003
C      0.023359   -1.881261   -0.403058
C      1.167679   -2.758945   -0.284919
C      2.531953   -2.261524   -0.401466
N      2.809229   -0.880301   -0.533014
O     -1.039450   -2.441393   -0.852142
H     -0.751039    1.709352    0.747730
H      3.229812    3.300710    0.916509
H      4.110387    1.152634    0.053070
H     -1.413402    1.252330   -1.831583
H     -3.762877    1.955821   -1.767028
H     -5.255033    1.059068   -0.047513
H     -4.411576   -0.570802    1.654025
H     -2.118402   -1.264312    1.594989
H      0.997514   -3.645727   -0.979094
H      1.058909   -3.275768    0.724953
H      3.043797   -2.800412   -1.263440
H      3.173477   -2.612168    0.474218
H      3.685077   -0.652807   -1.100566
