62

C     -1.313394    0.146097   -0.041239
N     -2.671415    0.432819   -0.300982
C     -3.653332   -0.633138   -0.034010
C     -4.045137   -0.850129    1.268945
C     -4.985475   -1.814522    1.545734
C     -5.547718   -2.572616    0.543209
C     -5.138642   -2.336535   -0.756893
C     -4.197454   -1.372890   -1.043580
C     -3.287379    1.593752   -0.807803
O     -4.567806    1.492331   -1.084640
C     -2.761288    2.922825   -1.084592
C     -3.118971    3.794401    0.141314
C     -1.234206   -1.206821    0.661982
O     -0.431913   -1.362278    1.619399
O     -2.043548   -2.222390    0.219758
C     -1.991938   -3.503376    0.845108
C     -0.498092   -0.126512   -1.302190
C      0.711596   -0.908231   -0.824499
N      1.435092   -0.266879    0.200857
C      2.810063   -0.228453   -0.091090
C      3.684132    0.424434    0.934041
C      5.093212    0.343088    0.441156
C      5.647942    1.343378   -0.325609
C      6.945946    1.232705   -0.765279
C      7.742802    0.146595   -0.472377
C      7.185676   -0.853545    0.295392
C      5.892396   -0.748002    0.736013
C      0.891748    0.821182    0.889176
C     -0.556648    1.101682    0.800790
C     -0.072879    1.046028   -2.089937
H     -3.632802   -0.281585    2.093324
H     -5.276691   -1.964702    2.595853
H     -6.293887   -3.334221    0.786693
H     -5.596987   -2.949615   -1.543036
H     -3.890172   -1.203309   -2.064750
H     -1.737380    3.053910   -1.365729
H     -3.352083    3.396521   -1.940709
H     -3.426414    3.134775    0.972816
H     -2.203467    4.324187    0.492258
H     -3.959292    4.460251   -0.082434
H     -2.642217   -4.208696    0.281685
H     -2.399422   -3.436522    1.877915
H     -0.963764   -3.921066    0.871445
H     -1.121785   -0.826110   -1.905434
H      1.344683   -1.105748   -1.739218
H      0.400646   -1.916314   -0.484086
H      3.184483   -1.281400   -0.209357
H      2.987605    0.245039   -1.099582
H      3.475287    1.486815    1.100814
H      3.639664   -0.162554    1.876294
H      5.067990    2.236478   -0.595151
H      7.383544    2.007912   -1.361302
H      8.781528    0.077630   -0.834121
H      7.818803   -1.714615    0.527779
H      5.465718   -1.552559    1.345828
H      1.464985    1.763102    0.603188
H      1.101372    0.632207    1.997728
H     -0.722581    2.171929    0.492757
H     -1.064124    1.083476    1.827035
H      0.820829    0.716722   -2.703871
H     -0.884900    1.364650   -2.786671
H      0.307460    1.868413   -1.478356
