59

H      0.000000    0.000000    0.000000
C     -3.026114   -2.060382    1.676861
C     -4.199706   -2.780402    1.664703
C     -5.234343   -2.406264    0.837087
C     -5.087894   -1.310916    0.025142
C     -3.906861   -0.549572    0.007824
C     -2.909601   -0.977565    0.857594
N     -1.600948   -0.372036    1.017696
C     -1.289247    0.992481    0.664152
C     -1.828763    1.673112   -0.425746
C     -2.780405    1.184690   -1.443639
C     -4.036618    0.597841   -0.933427
C     -1.428575    2.990731   -0.619165
C     -0.541822    3.565673    0.240978
C     -0.028016    2.842559    1.319667
C     -0.394090    1.539881    1.550455
C     -0.545500   -1.158689    1.549293
C     -0.228785   -2.364671    0.629070
C      0.239195   -1.910389   -0.730198
N      1.437987   -1.122562   -0.727722
C      2.562474   -1.911214   -0.358836
C      3.864594   -1.265903   -0.317939
O      4.916601   -2.022340   -0.456376
C      4.158761    0.127359   -0.140431
C      3.192081    1.044638    0.131455
C      3.509802    2.389474    0.272728
C      4.794992    2.838801    0.146032
Cl     5.136238    4.533405    0.333054
C      5.787690    1.914154   -0.129685
C      5.472603    0.587211   -0.269278
C      1.594130   -0.623220   -2.103593
Cl     0.000000    0.000000    0.000000
H     -2.196281   -2.327907    2.340862
H     -4.273440   -3.637820    2.322981
H     -6.182131   -2.974830    0.817157
H     -5.878013   -0.968732   -0.651055
H     -3.073631    2.059870   -2.089315
H     -2.269082    0.497142   -2.154940
H     -4.645297    0.249792   -1.794873
H     -4.630178    1.431940   -0.445758
H     -1.824745    3.568005   -1.464930
H     -0.211884    4.599970    0.110297
H      0.679163    3.288229    2.014129
H     -0.059596    0.903447    2.351015
H     -0.514204   -1.390298    2.597192
H      0.427374   -0.585378    1.368458
H      0.565642   -3.000752    1.044078
H     -1.160848   -2.945460    0.410489
H      0.423012   -2.840619   -1.311277
H     -0.589255   -1.389020   -1.290355
H      2.628487   -2.869628   -0.954243
H      2.369455   -2.293344    0.691445
H      2.151671    0.804271    0.270568
H      2.717276    3.109102    0.488426
H      6.793131    2.302412   -0.222772
H      6.301608   -0.082688   -0.485787
H      1.404887    0.467272   -2.083183
H      2.594217   -0.893755   -2.491100
H      0.852805   -1.067106   -2.788361
