34

C      1.103493    1.898412   -1.737128
C     -0.132935    1.408944   -1.302747
C     -0.156051    0.394075   -0.420930
C      1.009631   -0.189091    0.071740
C      2.204442    0.300685   -0.362281
C      2.272493    1.350754   -1.271896
O      3.411749   -0.253506    0.107278
C      4.674277    0.190724   -0.287382
C      0.904377   -1.351434    1.011795
C     -0.170229   -2.313058    0.554296
C     -1.259255   -1.669270   -0.285180
C     -1.381337   -0.237481    0.160217
N     -2.588308    0.443184   -0.093118
C     -3.675932   -0.316774    0.573664
C     -2.522646    1.647909    0.790332
Cl    -1.617587    2.117500   -1.978594
H      1.074979    2.721665   -2.450454
H      3.215491    1.736514   -1.612808
H      5.407071   -0.160496    0.482185
H      4.741188    1.293335   -0.337219
H      4.918244   -0.284932   -1.278080
H      1.876752   -1.877583    0.969306
H      0.720104   -1.059987    2.051680
H     -0.638938   -2.807579    1.426684
H      0.260063   -3.123495   -0.079726
H     -2.161794   -2.262108   -0.182598
H     -0.925056   -1.678534   -1.340932
H     -1.231135   -0.240835    1.279791
H     -3.315149   -0.570280    1.592422
H     -3.909094   -1.241400    0.056906
H     -4.551617    0.364209    0.635944
H     -1.493006    1.991815    0.935711
H     -3.209880    2.426147    0.487132
H     -2.854407    1.351969    1.833989
