30

C      2.084613    1.184965   -0.132051
C      1.527469    0.124980    0.507243
C      0.156523   -0.349884    0.370863
N     -0.195737   -1.343272    1.119624
C     -1.418360   -2.078046    1.281703
C     -2.620386   -1.209332    1.304284
O     -3.478499   -1.504238    2.157386
N     -2.929321   -0.074626    0.476106
C     -2.068299    0.410902   -0.559458
C     -0.694891    0.263301   -0.601379
N     -0.021964    0.741408   -1.684728
C     -0.652634    1.344256   -2.694303
Cl     0.208613    1.964674   -4.096831
C     -2.034598    1.492314   -2.646875
C     -2.775312    1.030876   -1.581659
O     -1.607315   -3.074745    0.327069
C      2.377763   -0.615121    1.352854
C      3.692333   -0.274681    1.511591
C      4.222192    0.808282    0.843916
C      3.425870    1.554173    0.012104
Cl     1.699135   -2.013521    2.216682
H      1.481073    1.828105   -0.779203
H     -1.359466   -2.589430    2.263143
H     -3.811320    0.425973    0.608814
H     -2.542984    1.980305   -3.462982
H     -3.841237    1.111633   -1.478407
H     -2.219143   -3.739317    0.733868
H      4.304698   -0.882171    2.178196
H      5.269691    1.076525    0.972029
H      3.821492    2.405714   -0.519602
