50

C     -1.519843    2.648217   -0.411305
C     -1.988254    3.842257    0.040128
C     -2.942931    3.894934    1.026367
C     -3.445677    2.723771    1.577893
C     -2.989377    1.516423    1.139550
C     -2.028936    1.502812    0.150022
C     -1.404671    0.306023   -0.454780
C     -2.228322   -0.907437   -0.736205
C     -3.441040   -1.243046   -0.157711
C     -4.291377   -0.565166    0.807368
C     -3.658590    0.367884    1.787775
C     -3.985232   -2.462085   -0.581851
C     -3.331738   -3.245675   -1.511722
C     -2.109407   -2.835639   -2.049901
N     -1.626089   -1.678237   -1.624880
C     -0.122198    0.298930   -0.595794
C      0.586790   -0.862153   -1.228619
C      2.059737   -0.519530   -1.336751
N      2.639673   -0.200136   -0.049392
C      3.968963   -0.602734    0.217051
O      4.717074   -1.285766   -0.712908
C      6.062783   -1.708453   -0.478908
C      6.938543   -0.512290   -0.195120
O      4.474768   -0.330276    1.325468
C      1.817471    0.515638    0.889986
C      0.780517    1.304005    0.011985
Cl    -3.556055    5.444236    1.619125
H     -0.787560    2.497638   -1.208762
H     -1.585085    4.759418   -0.401828
H     -4.204575    2.780830    2.360403
H     -4.799336   -1.365042    1.412458
H     -5.155392   -0.052547    0.298677
H     -2.956622   -0.207339    2.426565
H     -4.446410    0.752021    2.442094
H     -4.928461   -2.785337   -0.170955
H     -3.745982   -4.197066   -1.849569
H     -1.572145   -3.417981   -2.775145
H      0.479958   -1.763293   -0.644873
H      0.282191   -1.002250   -2.299196
H      2.626923   -1.315976   -1.815927
H      2.161027    0.405814   -1.958530
H      6.044470   -2.414265    0.383014
H      6.381064   -2.282659   -1.360760
H      6.388190    0.359136    0.166792
H      7.444887   -0.262194   -1.171113
H      7.718677   -0.811907    0.534087
H      1.238020   -0.211610    1.511175
H      2.356682    1.261865    1.473211
H      0.279623    2.004532    0.723376
H      1.403276    1.861704   -0.678325
