43

Na     0.000000    0.000000    0.000000
C      7.364343   -3.586609   -0.327189
C      6.609590   -2.289879   -0.475910
S      4.966774   -1.942912   -0.845970
C      5.035860   -0.256775   -0.780175
S      3.928152    1.123142   -1.040617
C      3.061409    1.499655    0.469553
C      1.584841    1.363418    0.403321
C      0.806217    2.375570    0.683801
N     -0.651435    2.278465    0.640566
C     -1.296812    1.118042    1.218983
S     -0.595714   -0.330936    0.449812
C      1.062245    0.062685   -0.091955
C     -2.647248    1.596924    0.766566
N     -3.299071    0.887921   -0.304604
C     -4.377160   -0.001340   -0.089620
O     -4.741688   -0.176507    1.120518
C     -5.093292   -0.729659   -1.155692
N     -5.870884   -1.822603   -0.555930
C     -7.117761   -1.818209   -0.073190
N     -7.421903   -3.087656    0.357274
N     -6.346616   -3.833145    0.124588
N     -5.436872   -3.065106   -0.418419
C     -1.929719    2.785869    0.304424
O     -2.310493    3.884638   -0.213537
C      1.337908    3.699910    1.009810
O      2.644466    4.088165    1.076250
O      0.533841    4.682165    1.280884
N      6.341421   -0.065139   -0.471505
N      7.088878   -1.052761   -0.327723
H      6.826777   -4.293094    0.322061
H      8.301177   -3.316752    0.254797
H      7.656117   -3.972631   -1.308834
H      3.489753    2.345603    0.956590
H      3.336222    0.624871    1.199146
H     -1.252116    1.100807    2.348585
H      0.986203    0.172058   -1.227454
H      1.803525   -0.755531    0.031946
H     -3.331623    1.789990    1.644373
H     -2.955978    1.024752   -1.276267
H     -4.435502   -1.064436   -1.968050
H     -5.881903   -0.081341   -1.630571
H     -7.771930   -0.961631   -0.022492
