46

C     -0.596848    0.362976    2.999128
C     -1.747091    0.653559    3.700099
C     -2.916915    0.907488    3.016961
C     -2.948182    0.873467    1.646462
C     -1.781794    0.578679    0.920645
C     -0.631344    0.329148    1.607713
N      0.644613    0.006001    0.967025
C      1.628398    0.982123    1.112736
O      1.253966    2.070025    1.755260
C      3.009272    1.042262    0.692979
N      3.562686   -0.072890   -0.005625
C      4.950201    0.032050   -0.435816
O      5.613907    1.051554   -0.198647
C      5.481352   -1.150384   -1.161920
N      6.833885   -1.001897   -1.582732
C      0.685521   -1.256572    0.304605
C     -1.815804    0.568094   -0.517474
O     -0.777387    0.838617   -1.189284
C     -3.017493    0.251542   -1.286925
C     -3.455994    1.125194   -2.257718
C     -4.571053    0.921414   -3.042006
C     -5.294484   -0.237506   -2.836963
C     -4.880297   -1.131739   -1.871855
C     -3.746148   -0.895262   -1.094800
Cl    -3.285768   -2.067444    0.106551
Cl    -4.373508    1.280598    3.943215
O     -0.001107    0.363137   -0.000000
H      0.350894    0.156596    3.517249
H     -1.714323    0.680379    4.791287
H     -3.868725    1.070070    1.085997
H      3.653493    1.206026    1.625915
H      3.241890    1.986210    0.104122
H      3.076093   -0.937611   -0.221440
H      4.839401   -1.366907   -2.038729
H      5.412757   -2.048170   -0.498015
H      7.113680   -0.014254   -1.633343
H      7.509588   -1.645954   -1.137032
H     -0.330250   -1.753298    0.347697
H      1.331859   -1.956555    0.881226
H      0.919838   -1.148763   -0.748016
H     -2.874451    2.029529   -2.402894
H     -4.855999    1.656610   -3.790248
H     -6.167069   -0.382786   -3.459794
H     -5.462367   -2.048649   -1.715597
H     -0.824985   -0.181947   -0.000000
H      0.826092   -0.181190    0.000000
