63

C      5.919747    2.851495    0.277008
C      6.006237    2.180644   -1.071335
O      4.707206    1.736678   -1.408068
C      4.065013    0.829016   -0.579664
O      4.604003    0.396434    0.451748
O      2.810212    0.401804   -0.907338
C      2.039291   -0.519122   -0.156164
C      1.774329   -0.018779    1.240103
C      0.886084    1.156792    1.006984
C      0.112688    0.810768   -0.256173
C     -1.344937    0.893050   -0.033356
C     -1.980506    1.692645   -1.154960
C     -3.395713    2.092241   -0.795912
C     -3.853523    1.255552    0.377457
C     -4.510946    1.845945    1.334400
C     -4.995657    1.130388    2.512837
O     -5.621621    1.698614    3.420369
C     -4.701694   -0.289815    2.561424
C     -4.042115   -0.858408    1.589472
C     -3.549737   -0.175528    0.402929
C     -4.208331   -0.880408   -0.792786
C     -2.049636   -0.368837    0.309606
C     -1.642688   -1.446482   -0.625258
O     -2.247245   -2.678045   -0.400089
C     -0.144966   -1.685328   -0.354055
C      0.653311   -0.484957   -0.757736
C      0.789690   -0.491958   -2.262209
C      2.647692   -1.849118   -0.109596
O      3.750093   -2.122857   -0.694851
O      2.054421   -2.891681    0.578563
C      2.625956   -4.189321    0.637616
Cl     1.567172   -5.233396    1.609720
H      4.885063    3.214019    0.481348
H      6.119735    2.073068    1.047835
H      6.634170    3.701032    0.349347
H      6.274257    2.966768   -1.818344
H      6.754424    1.362569   -1.086972
H      1.242738   -0.777060    1.810862
H      2.701736    0.235521    1.794134
H      0.198832    1.366951    1.854655
H      1.522240    2.052405    0.897511
H      0.425367    1.594056   -1.010341
H     -1.481053    1.565267    0.877364
H     -1.344384    2.571297   -1.356953
H     -1.988008    1.071898   -2.067759
H     -4.109392    1.958957   -1.617654
H     -3.389086    3.149003   -0.501697
H     -4.727331    2.923468    1.286444
H     -5.028631   -0.908668    3.415145
H     -3.855282   -1.963085    1.707045
H     -5.204623   -0.360730   -0.904474
H     -4.431078   -1.908621   -0.487893
H     -3.673958   -0.740326   -1.726550
H     -1.698598   -0.662714    1.329939
H     -1.699043   -1.210813   -1.692123
H     -1.827645   -3.312875   -1.040789
H      0.138489   -2.560417   -0.945212
H     -0.047161   -1.914425    0.726537
H      0.054400   -1.185405   -2.733362
H      0.670538    0.544506   -2.688627
H      1.795310   -0.849778   -2.538652
H      2.720420   -4.615195   -0.390934
H      3.643728   -4.168701    1.079486
