41

C     -0.421792   -1.694819   -1.538036
C     -1.042302   -2.686541   -2.289251
Cl    -0.091832   -3.564583   -3.450224
C     -2.387362   -2.992439   -2.139548
C     -3.071901   -2.254934   -1.202058
C     -2.484170   -1.267393   -0.444054
C     -1.137357   -0.990013   -0.621748
C     -0.297787    0.013919    0.069653
N     -0.727592    1.011127    0.800821
C     -2.045799    1.421223    1.141719
C     -3.193809    0.669202    0.975915
O     -3.340749   -0.632425    0.451138
C     -4.384335    1.239986    1.368140
C     -4.463182    2.507424    1.907714
C     -3.312372    3.250977    2.069596
C     -2.099688    2.699802    1.682712
N      1.095706   -0.124030   -0.076246
C      1.870817    0.613146   -1.040324
C      3.178698   -0.144388   -1.246485
N      3.919514   -0.298343   -0.035973
C      3.153364   -0.421294    1.159155
C      1.803382   -1.044287    0.777535
C      5.005872    0.657058    0.074368
H      0.625516   -1.458038   -1.656740
H     -2.876653   -3.756667   -2.714733
H     -4.140682   -2.480284   -1.066041
H     -5.288617    0.647256    1.237395
H     -5.391900    2.966063    2.219275
H     -3.338673    4.243834    2.487684
H     -1.181630    3.255315    1.796121
H      2.120495    1.608690   -0.615450
H      1.383341    0.787618   -1.996513
H      2.999673   -1.126514   -1.686370
H      3.746196    0.451923   -2.010998
H      3.657006   -1.170068    1.825939
H      2.988458    0.529538    1.703608
H      1.237622   -1.316673    1.687015
H      2.061977   -1.949510    0.192335
H      4.673116    1.608719    0.575181
H      5.886973    0.262274    0.587556
H      5.312459    0.928152   -0.959780
