22

C     -1.274989   -0.926456    0.058767
C     -2.643789   -0.721202    0.043596
C     -3.144540    0.556774    0.193968
C     -2.246970    1.593480    0.355740
C     -0.871586    1.372413    0.369060
C     -0.363676    0.097863    0.219354
C      1.111530   -0.150512    0.232166
N      1.792392    0.818103   -0.581044
N      3.164644    0.547682   -0.539283
C      1.368886   -1.567171   -0.167675
H     -0.891635   -1.932922   -0.059987
H     -3.344654   -1.546547   -0.084784
H     -4.212478    0.732686    0.184178
H     -2.643164    2.595404    0.473513
H     -0.171499    2.196056    0.497210
H      1.477770   -0.015860    1.279619
H      1.482100    0.746371   -1.588442
H      3.693641    1.445210   -0.464854
H      3.393444   -0.019125    0.329530
H      0.867293   -1.873009   -1.094137
H      2.454733   -1.720885   -0.299497
H      1.002546   -2.228352    0.643001
