35

C     -0.697149   -2.600835   -0.735863
N      0.378042   -1.751511   -0.230206
C      0.359748   -0.474693    0.065674
C     -0.814510    0.346447   -0.085094
C     -2.129250    0.012436    0.195294
C     -3.153707    0.914843    0.049965
C     -2.865501    2.200238   -0.395598
C     -1.532097    2.521290   -0.681042
C     -0.509477    1.626706   -0.537672
N     -1.223452    3.822532   -1.132255
O     -2.115548    4.686361   -1.281735
O      0.048484    4.190154   -1.421145
N     -2.571626   -1.321276    0.547230
C     -1.901268   -2.509571    0.138106
O     -2.385928   -3.563016    0.563690
C      1.580583    0.127598    0.543003
C      1.730046    1.365424    1.047158
C      2.973409    1.904033    1.395829
C      4.098276    1.139230    1.221608
C      4.001173   -0.126283    0.715950
C      2.778290   -0.619759    0.385498
Cl     2.640805   -2.245550   -0.267480
C     -0.283847   -4.035388   -0.800251
H     -0.952503   -2.231856   -1.743447
H     -4.143204    0.579906    0.292122
H     -3.655386    2.903733   -0.508620
H      0.524913    1.836299   -0.813851
H     -3.424502   -1.336897    1.110680
H      0.853505    1.995722    1.279616
H      3.006103    2.918682    1.796251
H      5.062428    1.563106    1.494379
H      4.890351   -0.741185    0.575565
H      0.280984   -4.265625    0.127741
H      0.356906   -4.184391   -1.703274
H     -1.205089   -4.646903   -0.908940
