56

C     -1.555337    0.190842    0.487871
Cl    -1.797537    1.783310    1.318988
C     -0.879876    0.496093   -0.799177
C      0.584375    0.667023   -0.758622
C      1.284238    0.411923    0.548653
C      2.693046    0.079287    0.105421
O      3.344277    1.323034   -0.079588
C      2.622179   -0.588588   -1.208268
C      1.341846   -0.122067   -1.814016
C      3.758785   -0.280899   -2.141617
C      3.479145   -0.661967    1.119694
O      3.144280   -1.781782    1.477458
C      4.704280   -0.103104    1.756649
O      5.270542   -0.971287    2.662746
C      0.661554   -0.739901    1.237830
C     -0.805431   -0.687588    1.420935
Cl    -1.128729   -0.121433    3.101169
C      1.408038    1.650748    1.405559
C     -1.316630   -0.440752   -1.937437
C     -2.771288   -0.333610   -2.240078
C     -3.503570    0.114549   -1.022722
C     -4.573259    0.861554   -1.247760
C     -5.334531    1.331970   -0.109464
O     -6.360104    2.047316   -0.300572
C     -4.925635    0.987210    1.225049
C     -3.865104    0.250114    1.380796
C     -3.002949   -0.290466    0.290443
C     -3.112961   -1.797077    0.498628
H     -1.338236    1.476053   -1.156513
H      0.865840    1.746413   -0.987990
H      4.138284    1.215763   -0.650553
H      2.645488   -1.703447   -1.031193
H      1.548403    0.507789   -2.730230
H      0.839161   -1.009002   -2.187780
H      3.697141   -1.030715   -2.984536
H      3.639957    0.726013   -2.585464
H      4.753169   -0.437546   -1.685570
H      4.503176    0.843732    2.314433
H      5.493336    0.115499    0.989544
H      6.268193   -0.879600    2.715243
H      0.938933   -1.668697    0.657626
H      1.132527   -0.906505    2.244366
H     -1.172912   -1.756418    1.429057
H      2.486009    1.921833    1.624135
H      1.043695    2.573822    0.872490
H      0.967260    1.530644    2.417157
H     -1.070775   -1.481176   -1.774168
H     -0.793258   -0.005651   -2.843349
H     -3.006561    0.293199   -3.131978
H     -3.210097   -1.344106   -2.489592
H     -4.887041    1.125581   -2.266271
H     -5.531455    1.364833    2.050072
H     -3.581867    0.005402    2.415678
H     -2.412467   -2.401863   -0.045748
H     -3.181794   -2.041898    1.581743
H     -4.137753   -2.054403    0.095557
