57

C     -0.739368    0.248164   -0.500086
C     -0.025378   -0.474391    0.633213
C      1.119718   -1.139249    0.007302
C      2.150451   -0.141329   -0.449080
C      3.143637   -1.099581   -1.074608
C      4.544261   -0.601698   -0.982534
C      5.007594    0.667446   -1.594999
O      5.413068   -1.244751   -0.371174
C      3.046570   -2.367845   -0.233051
C      1.907973   -2.109579    0.770716
C      2.835130    0.593490    0.635795
C      1.487890    0.741918   -1.474290
C      0.229151    1.379183   -0.875134
O      0.697981    2.014198    0.291134
C     -0.935719   -1.379043    1.423894
C     -1.915392   -0.416037    2.114750
C     -2.718914   -1.170834    3.106148
C     -2.711861    0.170684    1.011589
C     -4.021226    0.225410    1.150420
C     -4.907980    0.780409    0.131745
O     -6.053396    1.227782    0.351458
C     -4.394347    0.806709   -1.259665
C     -3.020596    0.193286   -1.368016
C     -2.109160    0.692219   -0.232047
C     -2.215000    2.210431   -0.312738
H     -0.700045   -0.434761   -1.402144
H      0.283288    0.338224    1.341844
H      0.755840   -1.649249   -0.934697
H      2.861724   -1.296485   -2.129557
H      6.046011    0.484255   -1.996075
H      4.358977    1.016377   -2.423276
H      5.141543    1.411713   -0.788919
H      2.685845   -3.175860   -0.901470
H      3.980272   -2.606002    0.280098
H      2.321176   -1.727227    1.712359
H      1.389864   -3.064457    1.005168
H      3.007118    1.646850    0.276640
H      2.265164    0.708951    1.575380
H      3.849453    0.184296    0.813576
H      1.298889    0.246607   -2.424935
H      2.168615    1.602329   -1.663797
H     -0.174846    2.064354   -1.616737
H      0.987244    2.919545    0.016274
H     -1.469737   -2.107713    0.794459
H     -0.319276   -1.892548    2.167889
H     -1.295564    0.384270    2.562001
H     -2.033280   -1.822778    3.691987
H     -3.405575   -1.853033    2.550511
H     -3.307680   -0.507455    3.747357
H     -4.500193   -0.156260    2.064948
H     -5.080295    0.188984   -1.875592
H     -4.441078    1.838864   -1.661231
H     -2.560015    0.572854   -2.303538
H     -3.051459   -0.894094   -1.420835
H     -3.221352    2.561023   -0.001141
H     -1.502334    2.745637    0.307724
H     -2.153380    2.465799   -1.398106
