46

H      0.000000    0.000000    0.000000
C      3.333459   -0.992774   -0.446927
C      3.103728    0.243641    0.110627
O      1.919885    0.510602    0.745711
C      0.902005   -0.435098    0.863901
C     -0.269649    0.116931    1.567043
O     -0.305691    1.311205    2.003690
N     -1.422669   -0.700347    1.777078
C     -2.594948   -0.200951    2.451037
C     -3.274271    0.953867    1.844132
N     -3.837480    0.798264    0.514010
C     -4.938974   -0.108938    0.618311
C     -5.777054   -0.361817   -0.569304
C     -2.868004    0.525849   -0.481050
C     -3.372182    0.615747   -1.899577
C      4.114135    1.202056    0.001773
C      5.290192    0.896260   -0.646023
C      5.520670   -0.354828   -1.209673
C      4.516212   -1.302656   -1.099199
O      6.703185   -0.660797   -1.862703
C      7.691010    0.359505   -1.942986
Cl     0.000000    0.000000    0.000000
H      2.530950   -1.734003   -0.352295
H      0.590463   -0.862768   -0.118082
H      1.273585   -1.279001    1.506459
H     -1.363291   -1.684687    1.421952
H     -2.363841   -0.020466    3.554116
H     -3.325911   -1.060523    2.511099
H     -4.176024    1.182346    2.497057
H     -2.685889    1.898779    1.863895
H     -4.572394   -1.125901    0.961827
H     -5.580498    0.265922    1.451881
H     -5.932866    0.452796   -1.272042
H     -6.835777   -0.561776   -0.160675
H     -5.571934   -1.344677   -1.091460
H     -2.475473   -0.521086   -0.286490
H     -2.022676    1.253846   -0.370364
H     -4.003431    1.509250   -2.031892
H     -3.890726   -0.272898   -2.244987
H     -2.445683    0.695067   -2.552492
H      3.947278    2.178473    0.438034
H      6.084386    1.618722   -0.743890
H      4.642806   -2.309118   -1.526284
H      7.950417    0.621935   -0.875419
H      7.218129    1.266319   -2.397265
H      8.574842    0.054719   -2.522555
