41

C      4.611508    0.200921   -1.449886
C      5.906696    0.636353   -1.289864
C      6.533107    0.642681   -0.070472
C      5.845191    0.198212    1.030865
C      4.520374   -0.253447    0.900616
C      3.910682   -0.252409   -0.326553
C      2.554843   -0.708852   -0.510850
C      1.735689   -1.223345    0.581198
C      0.478260   -0.386071    0.810979
C     -0.412317   -0.306778   -0.382229
N     -1.590531    0.474762   -0.064042
C     -2.317485    0.788551   -1.300623
C     -3.716220    1.214462   -0.916542
C     -4.529108    0.011040   -0.450704
C     -5.531788    0.492761    0.566588
C     -3.563002   -0.990929    0.143493
C     -2.485310   -0.196920    0.860485
O      2.055501   -0.655580   -1.693537
F      7.803446    1.085421    0.011075
H      4.112840    0.191209   -2.388678
H      6.431624    0.989709   -2.188011
H      6.276360    0.178143    2.011321
H      3.997714   -0.597756    1.787224
H      2.231013   -1.295345    1.559784
H      1.379568   -2.267737    0.356506
H      0.824221    0.648705    1.050737
H     -0.061564   -0.826802    1.672130
H      0.092147    0.303997   -1.194207
H     -0.649241   -1.279951   -0.826327
H     -1.811529    1.671445   -1.733016
H     -2.272349   -0.028427   -2.025304
H     -3.626286    1.918081   -0.073237
H     -4.272059    1.678404   -1.756274
H     -5.079466   -0.453660   -1.291444
H     -6.223688   -0.343573    0.815767
H     -4.996060    0.861495    1.457036
H     -6.079306    1.354023    0.144422
H     -4.062143   -1.660141    0.832973
H     -3.087403   -1.579266   -0.668981
H     -1.940266   -0.830760    1.539460
H     -2.993663    0.597375    1.449879
