34

C      2.769915   -0.184358   -0.717163
C      1.343053   -0.215156   -0.237475
C      0.865958    1.212192   -0.042920
C     -0.590928    1.224383    0.336472
C     -1.465003    0.465184   -0.611514
C     -0.933265   -0.956057   -0.778317
C      0.473084   -0.840209   -1.289151
C     -1.020153   -1.650745    0.552178
C     -0.201812   -0.860005    1.564517
C      1.240258   -0.919242    1.084403
C     -0.697040    0.553358    1.701060
N     -1.811164   -1.629520   -1.694617
C     -1.057137    2.653871    0.370215
H      3.502787   -0.249941    0.127303
H      2.992575   -0.979803   -1.467251
H      2.988028    0.793695   -1.215017
H      1.106965    1.864822   -0.897310
H      1.428040    1.593169    0.856471
H     -2.461941    0.357234   -0.136123
H     -1.614803    0.963655   -1.585793
H      0.437060   -0.103375   -2.145336
H      0.874139   -1.766229   -1.716419
H     -2.060757   -1.728540    0.859298
H     -0.523296   -2.653241    0.489943
H     -0.285848   -1.388402    2.547349
H      1.911410   -0.471011    1.812739
H      1.502428   -1.997937    1.011578
H     -1.715602    0.525315    2.085281
H     -0.054835    1.066103    2.425849
H     -1.634130   -2.653984   -1.774406
H     -1.780737   -1.133431   -2.619033
H     -1.682753    2.875161   -0.534037
H     -0.207999    3.377958    0.358129
H     -1.636497    2.855088    1.279095
