46

C     -2.375363   -0.991964    0.493020
C     -3.756186   -1.211826    0.600169
O     -4.239107   -2.158609    1.502227
C     -5.606130   -2.415242    1.640845
C     -4.627030   -0.494591   -0.181748
C     -4.131192    0.437836   -1.065519
C     -2.792115    0.643263   -1.160926
C     -1.878562   -0.076058   -0.376645
C     -0.459007    0.210232   -0.624198
C     -0.154814    1.640675   -0.318899
C     -0.785341    2.587213   -1.139236
C     -0.551125    3.917522   -1.007303
C      0.347717    4.326825   -0.011357
C      0.987925    3.437951    0.822205
C      0.712535    2.084180    0.643151
S     -2.045914    1.899793   -2.269517
C      0.494889   -0.775621   -0.063812
C      1.903593   -0.497761   -0.436205
C      2.878458   -1.470577    0.201240
N      4.223307   -1.229302   -0.123225
C      4.853225   -0.069709    0.376188
C      5.026254   -2.292786   -0.584573
O     -0.292594    0.132859   -2.038966
H     -1.711648   -1.557751    1.108444
H     -6.081613   -1.615634    2.281118
H     -5.764587   -3.367658    2.185365
H     -6.171643   -2.487781    0.695588
H     -5.689003   -0.672011   -0.091041
H     -4.825921    0.996684   -1.676086
H     -1.054324    4.606959   -1.660514
H      0.543879    5.378783    0.102659
H      1.676764    3.775651    1.583655
H      1.188191    1.381693    1.330844
H      0.221726   -1.765200   -0.545101
H      0.409940   -0.920191    1.035152
H      2.040472   -0.752912   -1.572336
H      2.220718    0.534169   -0.401534
H      2.597702   -2.506642   -0.011360
H      2.768897   -1.321274    1.315101
H      4.180674    0.398593    1.144835
H      5.809321   -0.356060    0.898973
H      5.061188    0.708281   -0.388775
H      4.404754   -3.080343   -1.068345
H      5.682109   -2.686265    0.218475
H      5.740846   -1.873508   -1.352326
H     -0.981865   -0.451886   -2.430479
