37

C      1.531538   -2.594153   -0.264623
C      0.803168   -1.455291   -0.531222
N      0.255835   -0.738990    0.557020
C      1.168833   -0.155612    1.510230
C      1.994139    0.912441    0.842866
C      2.143464    2.220739    1.231406
C      2.925598    2.999273    0.477252
C      3.512850    2.432865   -0.618923
S      2.955803    0.823488   -0.565237
C     -1.175985   -0.604124    0.641942
C     -1.631157    0.812038    0.383375
N     -3.028139    0.975355    0.462968
C     -3.657921    0.847170    1.721480
C     -3.805535    0.766570   -0.699332
N      0.649097   -1.107818   -1.818649
C      1.176076   -1.827782   -2.845226
C      1.909974   -2.975226   -2.584019
C      2.086151   -3.357456   -1.273485
H      1.723542   -2.968820    0.748472
H      0.698203    0.292609    2.378364
H      1.928771   -0.899609    1.893333
H      1.616059    2.571024    2.151373
H      3.104236    4.067746    0.711614
H      4.178769    2.938462   -1.339859
H     -1.482012   -0.947889    1.651864
H     -1.634949   -1.262151   -0.117311
H     -1.310281    1.062027   -0.661048
H     -1.111798    1.545699    1.032764
H     -3.941919   -0.152686    2.026218
H     -4.507525    1.561274    1.779211
H     -2.931410    1.219082    2.496581
H     -3.545587   -0.097419   -1.319711
H     -3.737782    1.702822   -1.330350
H     -4.867038    0.689366   -0.413828
H      1.012989   -1.497553   -3.849439
H      2.334968   -3.554336   -3.388234
H      2.658979   -4.243135   -1.077836
