77

C     -6.740878    2.007058   -1.706725
C     -7.775865    2.341195   -2.569274
Cl    -7.762444    3.847087   -3.474000
C     -8.826535    1.465357   -2.707561
C     -8.827514    0.296293   -1.999486
C     -7.768000   -0.002759   -1.144461
C     -6.695735    0.824710   -0.962957
N     -5.645318    0.629042    0.010998
C     -5.610662   -0.437417    0.910472
C     -6.539029   -1.444080    0.988660
C     -6.544940   -2.400652    1.965048
C     -5.577645   -2.385001    2.942265
C     -4.623709   -1.394477    2.905875
C     -4.630513   -0.428013    1.908600
S     -7.798316   -1.551396   -0.261619
C     -4.549521    1.567532   -0.132408
C     -3.874993    1.358144   -1.442973
C     -3.122018    0.094389   -1.652690
N     -1.948234   -0.205392   -1.026211
C     -1.696502   -0.497669    0.294959
C     -0.262109   -1.065167    0.423386
N      0.707918   -0.094541    0.027710
C      0.952870    0.856267    1.110165
C      1.981560    1.863135    0.721061
O      3.242386    1.303852    0.403907
C      3.986636    0.569134    1.306827
C      5.278869    0.007105    0.956691
C      5.771000    0.213989   -0.311283
C      6.982373   -0.286066   -0.698519
C      7.706212   -1.010307    0.222589
O      8.940808   -1.526055   -0.154406
C     10.142480   -0.802572    0.013348
C      7.224294   -1.224688    1.495778
C      6.006713   -0.717325    1.872075
O      7.977771   -1.951490    2.380737
C      7.584608   -2.232539    3.706742
O      7.469988   -0.079631   -1.958906
C      6.713022    0.663424   -2.883057
O      3.481381    0.413576    2.453429
C      0.299521    0.584575   -1.178401
C     -0.754450   -0.203401   -1.874007
H     -5.990855    2.769795   -1.633589
H     -9.667006    1.671911   -3.367634
H     -9.619603   -0.438696   -2.057216
H     -7.307309   -3.166996    1.969725
H     -5.541866   -3.124567    3.737825
H     -3.836300   -1.330547    3.647466
H     -3.916130    0.350577    1.890708
H     -5.037447    2.586637   -0.031236
H     -3.774565    1.581229    0.609224
H     -4.574216    1.389129   -2.346772
H     -3.174783    2.256978   -1.549991
H     -2.977960   -0.096337   -2.779344
H     -3.862035   -0.772134   -1.429572
H     -2.333224   -1.336500    0.637566
H     -1.808657    0.337534    0.996229
H     -0.131387   -1.262753    1.509620
H     -0.209347   -2.029044   -0.102658
H     -0.004075    1.392545    1.327822
H      1.204766    0.290532    2.007667
H      2.099048    2.647485    1.504866
H      1.678919    2.442146   -0.197460
H      5.194010    0.782015   -1.020658
H     10.815707   -1.269443    0.772589
H     10.653834   -0.698545   -0.958893
H      9.867670    0.188939    0.439674
H      5.631324   -0.894388    2.891664
H      8.392306   -2.826461    4.193777
H      6.637362   -2.828952    3.716227
H      7.446196   -1.332666    4.317563
H      6.397651    1.641337   -2.425501
H      5.833539    0.074397   -3.166664
H      7.290635    0.848512   -3.822689
H      1.221973    0.700176   -1.812995
H     -0.058401    1.596395   -0.850948
H     -0.429321   -1.256803   -1.966504
H     -0.985934    0.151336   -2.892308
