46

C     -0.806868    1.399251    0.349559
C     -1.827481    2.302951    0.536021
O     -1.494347    3.575242    0.962781
C     -2.488074    4.548144    1.173262
C     -3.149092    1.981481    0.313363
C     -3.467265    0.714453   -0.110328
C     -2.454845   -0.218898   -0.306767
C     -1.136829    0.131944   -0.075441
C      0.045212   -0.744420   -0.238700
C      0.058174   -2.073494   -0.337776
C     -1.060898   -3.001560   -0.313292
C     -2.397498   -2.723526   -0.492330
C     -3.354122   -3.714234   -0.442736
C     -2.980518   -5.023436   -0.208730
C     -1.649133   -5.285093   -0.032695
C     -0.691234   -4.309940   -0.079835
O     -2.955525   -1.459270   -0.738666
N      1.263411   -0.042157   -0.293650
C      2.107935    0.033967    0.865232
C      3.064644    1.186397    0.863570
N      3.542624    1.597743   -0.410076
C      4.911193    2.050431   -0.408997
C      3.229764    0.700808   -1.473275
C      1.693138    0.603904   -1.504073
H      0.229889    1.619370    0.515877
H     -3.300841    4.168225    1.840582
H     -2.979370    4.846774    0.224065
H     -2.007187    5.411379    1.687091
H     -3.968299    2.675202    0.453148
H     -4.487632    0.415583   -0.297968
H      1.036704   -2.497419   -0.448740
H     -4.385499   -3.430874   -0.591157
H     -3.757276   -5.755804   -0.179221
H     -1.365171   -6.311476    0.149831
H      0.358747   -4.523459    0.059722
H      2.751262   -0.899250    0.872870
H      1.528107    0.093477    1.818986
H      2.568431    2.052341    1.345638
H      3.935456    0.906228    1.500245
H      5.494646    1.536959   -1.200824
H      4.969239    3.145072   -0.567211
H      5.401440    1.802126    0.564800
H      3.666264   -0.305593   -1.320538
H      3.516983    1.133541   -2.444316
H      1.434175    0.025378   -2.417771
H      1.357566    1.661532   -1.582303
