36

C      2.609970   -0.219838   -0.025851
C      3.410131    0.816072   -0.459934
O      4.778499    0.638789   -0.477865
C      5.339852   -0.578086   -0.059918
C      2.868220    2.024446   -0.875910
C      1.504327    2.195948   -0.856107
C      0.700590    1.166302   -0.424134
C      1.263986   -0.046849   -0.007698
C      0.216318   -0.877542    0.365326
C     -0.909311   -0.152728    0.164880
N     -0.653906    1.050459   -0.298154
C     -1.732518    1.961776   -0.573110
C     -3.016904    1.627242    0.094901
N     -3.336245    0.231790    0.180227
C     -2.228282   -0.655861    0.437134
N     -2.359648   -1.843200    0.884386
C     -1.273293   -2.735606    1.142854
C      0.097852   -2.244460    0.881277
C     -4.652681   -0.345515    0.033405
H      3.008603   -1.170949    0.303271
H      5.136562   -0.697799    1.016667
H      6.419840   -0.543797   -0.304463
H      4.831955   -1.432897   -0.580400
H      3.524378    2.840579   -1.219481
H      1.049827    3.124304   -1.173353
H     -1.859188    2.143542   -1.680878
H     -1.398179    2.966983   -0.180882
H     -3.054951    2.115928    1.089953
H     -3.845957    2.107766   -0.501138
H     -1.354910   -3.202800    2.164749
H     -1.448210   -3.624448    0.459272
H      0.681320   -2.304967    1.848138
H      0.661610   -2.902391    0.174516
H     -4.715210   -1.318807    0.548487
H     -4.811935   -0.460975   -1.078085
H     -5.452511    0.347590    0.387576
