62

C     -0.369278    1.506141    0.460745
C     -0.054629    0.054435    0.804448
C      0.843726   -0.592797   -0.177008
C      2.185359    0.028951   -0.358369
C      3.027953   -0.718493   -1.394335
C      3.276676   -2.137389   -1.031428
C      4.764515   -2.510575   -1.078409
C      5.443725   -1.611685   -0.033705
C      5.218774   -0.233513   -0.524753
O      4.255826   -0.028688   -1.481401
O      5.897439    0.717258   -0.071550
O      5.275322   -2.121090   -2.309996
C      0.294320   -0.101116    2.249317
C     -0.886007    0.287819    3.054232
C     -1.603750    1.326950    2.660476
C     -1.276388    2.087176    1.480117
C     -1.754309    3.282105    1.245563
C     -1.392212    4.032167   -0.015514
C     -1.161614    3.117725   -1.177897
C     -1.115655    1.658856   -0.848377
O     -2.412431    1.113935   -0.615977
C     -2.961885    0.095058   -1.349246
C     -4.327446   -0.455226   -1.079803
C     -4.417144   -1.011787    0.327320
C     -3.437575   -2.118669    0.566483
C     -4.657125   -1.499889   -2.116345
O     -2.240379   -0.364609   -2.283644
C      1.470536    0.643650    2.736424
H      0.606010    2.040041    0.423546
H     -1.034770   -0.474262    0.699475
H      0.977079   -1.671908    0.040691
H      0.327557   -0.569683   -1.171506
H      2.064623    1.041753   -0.761242
H      2.744971   -0.027565    0.578320
H      2.541289   -0.614409   -2.410137
H      2.848180   -2.455668   -0.060384
H      2.793037   -2.782034   -1.806156
H      4.877140   -3.566375   -0.852083
H      5.005082   -1.782928    0.967865
H      6.514871   -1.879580    0.037658
H      6.189718   -1.739360   -2.249551
H      0.488693   -1.186345    2.412319
H     -1.174376   -0.257683    3.955703
H     -2.487097    1.601337    3.283748
H     -2.419643    3.718089    1.985931
H     -0.482907    4.656777    0.205867
H     -2.234333    4.737975   -0.188046
H     -1.900856    3.374267   -1.961262
H     -0.155224    3.376114   -1.621648
H     -0.629067    1.144281   -1.694405
H     -5.106732    0.336612   -1.155824
H     -5.444450   -1.408330    0.461560
H     -4.308263   -0.157857    1.021344
H     -3.010415   -1.959999    1.596861
H     -3.969773   -3.104982    0.633268
H     -2.616221   -2.125612   -0.154684
H     -5.074546   -1.034589   -3.045716
H     -3.749636   -2.050295   -2.435056
H     -5.423484   -2.194438   -1.664892
H      2.364922   -0.019573    2.939489
H      1.235963    1.064670    3.737741
H      1.756317    1.524861    2.118102
