39

C      5.430290   -0.608875    0.224170
C      5.613288    0.388872   -0.712302
C      4.527569    1.000584   -1.251236
C      3.232165    0.631038   -0.869076
C      3.031578   -0.367932    0.068880
C      4.152231   -0.968026    0.596548
Cl     3.988947   -2.248866    1.793155
C      1.653406   -0.749835    0.477746
O      0.696479   -0.033546   -0.171275
C     -0.624996   -0.387481    0.249157
C     -1.143066   -1.135729   -0.977373
N     -2.463241   -1.658771   -0.815700
C     -2.675811   -2.904691   -0.277558
N     -3.969163   -3.194775   -0.233407
C     -4.621455   -2.157713   -0.735441
C     -3.687642   -1.199812   -1.098772
C     -1.368374    0.845223    0.552067
C     -1.339485    1.374197    1.819434
C     -1.989268    2.582154    2.101242
C     -2.657845    3.230717    1.090382
C     -2.695251    2.712244   -0.182961
C     -2.058336    1.539195   -0.437262
Cl    -3.486252    4.743353    1.386717
Cl    -0.521809    0.573019    3.177544
Cl     7.229373    0.888869   -1.220516
H      6.300648   -1.097867    0.656351
H      4.677340    1.789479   -1.988780
H      2.437181    1.157468   -1.333111
H      1.548214   -1.816445    0.146167
H      1.546742   -0.639168    1.560966
H     -0.565819   -1.078112    1.042745
H     -0.999273   -0.541944   -1.918210
H     -0.433478   -1.991524   -1.105660
H     -1.895257   -3.586971    0.071656
H     -5.700476   -2.115208   -0.827006
H     -3.952006   -0.270083   -1.535214
H     -1.944910    2.980450    3.124745
H     -3.217927    3.210167   -1.005415
H     -2.054306    1.106345   -1.443396
