25

C     -3.175088    0.417234   -1.358258
N     -2.027247   -0.319789   -0.909539
C     -0.886929    0.567519   -0.855447
C      0.210209    0.024039   -0.015640
C     -0.131480   -0.438964    1.177435
C     -1.604519   -0.333705    1.486501
C     -2.319836   -0.965144    0.331261
C      1.589207   -0.019994   -0.430348
N      2.552607   -0.486226    0.281633
O      3.839427   -0.493319   -0.183554
C      4.935908    0.066195    0.460246
H     -4.012722   -0.242198   -1.674434
H     -3.578693    1.128582   -0.632021
H     -2.882106    0.995670   -2.270561
H     -0.538624    0.711953   -1.890402
H     -1.205841    1.580652   -0.490254
H      0.571533   -0.859185    1.881072
H     -1.822862   -0.892940    2.407356
H     -1.872700    0.746368    1.571378
H     -1.938692   -2.021165    0.252021
H     -3.411854   -1.075073    0.524156
H      1.845776    0.363441   -1.408400
H      5.748515   -0.717719    0.467401
H      4.774164    0.391299    1.485574
H      5.341848    0.873408   -0.207177
