44

C     -2.840482   -1.289757   -0.628677
C     -1.595074   -1.901736   -0.696956
C     -0.462150   -1.320238   -0.172733
N     -0.598344   -0.120549    0.418172
N     -1.780784    0.465323    0.485307
C     -2.913531   -0.063889   -0.011798
C     -4.161050    0.677071    0.125179
C     -5.353501    0.200452   -0.360093
C     -6.524937    0.938298   -0.207505
C     -6.490218    2.156636    0.435488
C     -5.311549    2.664172    0.934594
C     -4.160023    1.909280    0.769010
N      0.768119   -2.019897   -0.280976
C      1.985647   -1.417030    0.259769
C      2.310247   -0.133499   -0.451983
N      3.467278    0.529225    0.000885
C      4.687215   -0.162794   -0.285105
C      5.832787    0.826088   -0.215100
O      5.367794    2.065138    0.172770
C      4.750801    1.913116    1.431521
C      3.441411    1.122464    1.291088
C     -1.482761   -3.225414   -1.358023
H     -3.713621   -1.767064   -1.048836
H     -5.430344   -0.746723   -0.870799
H     -7.451471    0.547728   -0.596300
H     -7.381903    2.775040    0.582536
H     -5.211924    3.608453    1.446886
H     -3.194742    2.264678    1.145343
H      0.809879   -2.945500   -0.736106
H      1.830230   -1.166259    1.338222
H      2.772711   -2.160551    0.219988
H      1.469624    0.584247   -0.468389
H      2.464291   -0.419513   -1.533434
H      4.807200   -0.979149    0.488502
H      4.662743   -0.624999   -1.275364
H      6.537527    0.450612    0.561428
H      6.308135    0.933552   -1.211190
H      5.484111    1.379167    2.067408
H      4.588562    2.920663    1.818193
H      2.638750    1.884145    1.365287
H      3.434072    0.386883    2.097242
H     -1.069994   -3.920043   -0.578790
H     -2.490379   -3.623013   -1.597583
H     -0.800353   -3.194813   -2.232086
