53

O     -4.673441    1.916029    1.595408
C     -5.492410    0.967034    1.033525
C     -5.222648    0.784086   -0.432741
N     -3.912212    0.370155   -0.775554
C     -2.857574    1.278751   -0.575356
C     -1.711253    0.807517    0.272510
N     -1.431774   -0.537012   -0.038101
C     -0.128784   -0.992982   -0.202626
C      0.423083   -0.367771   -1.502216
C      1.840672   -0.878637   -1.658627
N      2.684511   -0.447996   -0.535032
C      3.056725    0.923538   -0.546632
C      2.695881    1.752548   -1.621817
C      3.052473    3.078355   -1.693092
C      3.785577    3.641902   -0.698245
C      4.149193    2.835389    0.368705
C      3.798516    1.533061    0.438317
S      4.340318    0.617118    1.859840
C      3.775006   -1.051216    1.609208
C      4.091867   -1.986233    2.559008
C      3.701460   -3.304894    2.480568
C      2.959596   -3.635252    1.370581
Cl     2.413961   -5.296489    1.179758
C      2.635853   -2.703115    0.410133
C      3.036462   -1.379803    0.502560
C     -2.506192   -1.403216    0.184925
C     -3.649177   -1.011395   -0.720504
H     -5.130295    2.776729    1.783157
H     -5.446654    0.017607    1.600678
H     -6.549348    1.315143    1.122323
H     -5.382840    1.788570   -0.924030
H     -5.954169    0.106056   -0.917318
H     -2.413204    1.536517   -1.582499
H     -3.236094    2.264915   -0.200655
H     -2.023696    0.882975    1.356513
H     -0.859883    1.497039    0.094288
H      0.564077   -0.718450    0.644664
H     -0.135020   -2.083419   -0.387148
H     -0.206884   -0.611947   -2.352512
H      0.346569    0.715495   -1.316933
H      1.749952   -1.962660   -1.770463
H      2.338046   -0.461062   -2.589399
H      2.131521    1.367167   -2.451942
H      2.735104    3.668040   -2.562758
H      4.059824    4.673468   -0.760649
H      4.732898    3.305061    1.147564
H      4.689536   -1.700393    3.446669
H      3.962311   -4.036306    3.245434
H      2.049490   -3.044727   -0.424121
H     -2.794472   -1.398075    1.255203
H     -2.218464   -2.456708   -0.100088
H     -4.527611   -1.606087   -0.464137
H     -3.336383   -1.344419   -1.756344
