56

C      0.789286   -0.032627   -0.686781
C     -0.645608   -0.342677   -0.928444
C     -1.363229    0.254354    0.301026
Cl    -0.894718    1.968947    0.347775
C     -2.850342    0.179658    0.121338
C     -3.249835    0.714491   -1.194161
C     -4.114336    1.675449   -1.386300
C     -4.767627    2.317064   -0.262845
O     -5.596899    3.234062   -0.411968
C     -4.425015    1.855639    1.067123
C     -3.542578    0.877112    1.199433
C     -2.565967    0.145715   -2.423598
C     -1.090747    0.398770   -2.147129
C     -3.336738   -1.269866    0.142108
C     -0.896474   -0.385217    1.564390
O     -1.166580   -1.745495    1.643830
C      0.591877   -0.169273    1.776135
C      1.344300   -0.675077    0.578664
C      2.753433   -0.092528    0.486878
O      2.632053    1.270624    0.626522
C      3.086948   -0.425468   -0.970811
C      1.755922   -0.464862   -1.707854
C      3.986542    0.626824   -1.581510
C      3.689829   -0.714168    1.423735
O      3.860049   -1.916187    1.371025
C      4.453046    0.049453    2.447457
Cl     4.088575    1.782208    2.388314
C      1.370147   -2.165646    0.510022
H      0.884058    1.062678   -0.534519
H     -0.850296   -1.429217   -0.985303
H     -4.385213    2.039285   -2.387686
H     -4.897834    2.319511    1.944560
H     -3.356702    0.607357    2.262459
H     -2.852768    0.701553   -3.316206
H     -2.753444   -0.942654   -2.509346
H     -0.462412    0.251317   -3.023942
H     -1.027324    1.497549   -1.899954
H     -2.758199   -1.935174   -0.495483
H     -3.448798   -1.557676    1.185779
H     -4.374229   -1.235898   -0.302488
H     -1.395024    0.112859    2.409606
H     -0.609729   -2.143521    2.355732
H      0.872703   -0.830832    2.638412
H      0.843226    0.855462    2.067455
H      3.155800    1.810185    0.015336
H      3.611793   -1.388711   -1.062212
H      1.558715   -1.480833   -2.118150
H      1.739132    0.230956   -2.571356
H      4.505627    0.142912   -2.458230
H      3.440717    1.488643   -1.978723
H      4.758794    0.874932   -0.831395
H      4.119125   -0.314637    3.456529
H      5.547403   -0.062070    2.343402
H      2.189082   -2.526691   -0.144777
H      0.437303   -2.560460    0.115303
H      1.613183   -2.538102    1.530823
