39

C     -0.976397    1.540985    0.191154
C     -0.388041    2.757000   -0.043400
N     -1.193883    3.909725    0.031832
O     -2.405671    3.820710    0.309973
O     -0.600873    5.143986   -0.212057
C      0.966793    2.873163   -0.354126
C      1.763475    1.756767   -0.433146
C      1.167352    0.542498   -0.196287
C     -0.190843    0.406064    0.109602
C     -0.946350   -0.794432    0.312635
N     -0.461130   -1.832879    0.946788
C      0.841420   -2.042311    1.547818
C      1.935465   -1.738994    0.591310
N      2.127786   -0.530917   -0.178293
C      3.302846   -0.350339   -0.959132
O      4.377927    0.238474   -0.320466
C      4.868817   -0.435114    0.763562
O      2.778555   -2.636025    0.442873
C     -2.289709   -0.898106   -0.168512
C     -2.928978   -0.032807   -0.974006
C     -4.290462   -0.154621   -1.322005
C     -5.031359   -1.197884   -0.835601
C     -4.400760   -2.100419   -0.011250
C     -3.079302   -1.973932    0.322680
H     -2.004873    1.412564    0.499816
H      1.436481    3.829581   -0.542035
H      2.797696    1.754334   -0.669657
H      0.912041   -3.108425    1.811827
H      0.877751   -1.456941    2.480200
H      3.110207    0.092567   -1.963312
H      3.657614   -1.382526   -1.215324
H      5.218088   -1.434655    0.434868
H      5.751672    0.134998    1.156587
H      4.105927   -0.520785    1.589841
H     -2.396882    0.782770   -1.466153
H     -4.749244    0.567875   -1.967414
H     -6.091832   -1.331112   -1.080019
H     -4.996834   -2.937449    0.376799
H     -2.574490   -2.673387    0.966444
