94

C     -4.357354   -2.862664    0.271168
C     -5.148806   -1.654825    0.627189
C     -6.266975   -1.722131    1.392211
C     -6.698846   -3.032826    1.899108
C     -5.647063   -4.086505    1.902767
C     -4.247858   -3.603803    1.592484
C     -3.837386   -2.547236    2.586270
C     -2.757838   -1.865045    2.236097
C     -2.106831   -2.214648    0.951542
C     -3.084256   -2.230277   -0.170786
O     -3.473708   -0.918634   -0.613568
C     -4.609042   -0.532393    0.089472
C     -5.274927    0.658399    0.353160
C     -6.432052    0.639079    1.136413
C     -6.918435   -0.556016    1.650401
O     -4.742134    1.819465   -0.186965
C     -5.455372    3.025545    0.109235
C     -4.871570    4.222070   -0.476014
C     -3.850607    4.912433    0.124682
C     -3.302493    6.060815   -0.447387
C     -3.773416    6.534743   -1.636239
C     -4.798475    5.855721   -2.255608
C     -5.342418    4.706110   -1.676235
O     -0.937874   -1.456055    0.710375
C      0.321796   -2.076778    0.662892
C      1.579504   -1.325672    0.414023
C      1.329669    0.145322    0.262105
C      2.596264    0.923370    0.006996
C      3.297163    0.480708   -1.251750
C      4.560517    1.352304   -1.376146
C      5.300281    0.950275   -2.623397
C      6.539034    1.769960   -2.805769
C      7.457437    1.573566   -1.633192
C      8.735724    2.379762   -1.787286
C      9.594093    2.140908   -0.583162
C      9.966871    0.695766   -0.410134
C     10.841754    0.564760    0.828821
C     10.095755    1.041678    2.055654
O      0.319725   -3.327902    0.846844
N     -5.934751   -5.176798    0.990969
C     -5.295994   -5.050180   -0.271873
C     -5.101260   -3.636172   -0.758326
C     -7.286954   -5.616881    0.985085
H     -7.520936   -3.404159    1.222337
H     -7.136555   -2.904523    2.892520
H     -5.601174   -4.536874    2.920938
H     -3.573996   -4.455116    1.569158
H     -4.340124   -2.337014    3.495966
H     -2.339961   -1.079776    2.835677
H     -1.800577   -3.300168    1.081446
H     -2.613856   -2.754587   -1.040847
H     -6.934621    1.581105    1.328334
H     -7.812293   -0.547401    2.252015
H     -6.520898    2.853208   -0.224049
H     -5.526534    3.052733    1.236156
H     -3.437093    4.585395    1.064629
H     -2.493457    6.599385    0.038803
H     -3.353293    7.436956   -2.100211
H     -5.167958    6.224811   -3.185101
H     -6.141953    4.240624   -2.232514
H      2.075497   -1.784875   -0.438278
H      2.282522   -1.438789    1.290901
H      0.873257    0.572983    1.177550
H      0.631465    0.350194   -0.574278
H      3.310244    0.825918    0.845757
H      2.361416    2.001052   -0.101050
H      2.715285    0.692516   -2.168205
H      3.668033   -0.552425   -1.196424
H      5.150093    1.187602   -0.438117
H      4.256593    2.406240   -1.476022
H      5.594420   -0.122037   -2.590007
H      4.604645    1.151379   -3.474628
H      6.225113    2.849072   -2.867503
H      7.017467    1.467528   -3.760402
H      7.731934    0.515867   -1.609777
H      6.976424    1.957752   -0.717064
H      8.512566    3.437087   -1.959177
H      9.239552    1.982218   -2.690733
H     10.571450    2.687725   -0.725796
H      9.131432    2.561208    0.328361
H      9.096964    0.026836   -0.217802
H     10.495212    0.350716   -1.315893
H     11.040176   -0.525898    0.954076
H     11.815539    1.073104    0.703939
H     10.360283    0.466866    2.968281
H      9.009767    0.867080    1.892314
H     10.293267    2.120136    2.255224
H     -5.930091   -5.566249   -1.032955
H     -4.294285   -5.527966   -0.230596
H     -6.084015   -3.165090   -1.046792
H     -4.507645   -3.671136   -1.682083
H     -7.775553   -5.300910    1.915005
H     -7.274724   -6.744572    1.033393
H     -7.839919   -5.365044    0.071401
