94

C      3.047670   -0.715765   -1.311905
C      2.439589    0.469217   -0.932258
C      3.101291    1.786936   -1.104595
C      3.703442    2.296751    0.186891
C      4.370345    3.632083    0.007465
C      4.974780    4.159431    1.267665
C      6.036625    3.237987    1.832235
C      7.161950    3.058633    0.828155
C      7.791539    4.420780    0.521478
C      2.708353    2.305106    1.317006
C      2.235617    2.785568   -1.800752
C      1.179022    0.367863   -0.389161
C      0.526329   -0.862775   -0.219713
C      1.129082   -2.019753   -0.592620
C      2.410969   -1.927315   -1.147094
O      3.099180   -3.041941   -1.555107
C      2.610117   -4.332209   -1.443977
C      1.256379   -4.382572   -0.851319
C      0.555701   -3.363381   -0.454577
C     -0.793793   -3.462156    0.158315
C     -1.162081   -4.885444    0.574468
C     -2.109471   -5.515329   -0.435831
C      0.036952   -5.781702    0.669575
C      0.670228   -5.753355   -0.719110
C      2.573872   -5.027496   -2.800146
C      3.602601   -5.127785   -0.611203
O     -0.741476   -0.853308    0.334190
C     -1.827895   -0.395263   -0.418201
C     -3.189082   -0.359067    0.123214
C     -4.148620    0.151997   -0.947964
C     -5.524861    0.185458   -0.328455
N     -5.456562    1.114802    0.813908
C     -6.745269    1.155832    1.464955
C     -7.789314    1.930573    0.743421
C     -7.875683    3.375576    1.193970
C     -6.715122    4.158620    0.620069
C     -5.452942    3.506713    1.191059
C     -5.071652    2.391053    0.258109
O     -1.573119   -0.009620   -1.601091
H      4.026503   -0.650632   -1.736887
H      3.984226    1.581889   -1.789344
H      4.512042    1.571542    0.473443
H      5.163618    3.602368   -0.765529
H      3.640801    4.402842   -0.348517
H      4.250159    4.427121    2.052871
H      5.505735    5.121085    1.023965
H      6.462334    3.714552    2.725911
H      5.645155    2.259768    2.113863
H      7.948650    2.447773    1.310237
H      6.823381    2.586700   -0.112592
H      7.141152    5.008012   -0.181943
H      7.936190    4.956850    1.475023
H      8.790490    4.282693    0.059648
H      2.418319    1.263195    1.529586
H      3.266206    2.658732    2.218767
H      1.835288    2.955094    1.102678
H      1.515851    2.207348   -2.449833
H      1.598992    3.373309   -1.115118
H      2.804498    3.430406   -2.509579
H      0.648092    1.252010   -0.076432
H     -1.592844   -3.180453   -0.549930
H     -0.774530   -2.906176    1.110035
H     -1.698866   -4.877208    1.535484
H     -3.151434   -5.536376   -0.057206
H     -2.002616   -4.959443   -1.375098
H     -1.850112   -6.581493   -0.639157
H      0.739389   -5.433106    1.440838
H     -0.308894   -6.796134    0.863001
H      1.383593   -6.558405   -0.875791
H     -0.153693   -5.808885   -1.457655
H      1.708660   -4.677486   -3.386582
H      3.554671   -4.790938   -3.294105
H      2.578696   -6.119139   -2.616227
H      3.364431   -6.198573   -0.560658
H      4.576602   -5.044397   -1.146383
H      3.739882   -4.688225    0.395915
H     -3.269865    0.292082    1.014495
H     -3.579219   -1.396857    0.355621
H     -3.839980    1.126516   -1.351855
H     -4.211261   -0.587095   -1.778820
H     -6.298623    0.539477   -1.030306
H     -5.844251   -0.779811    0.062476
H     -6.713648    1.479140    2.520589
H     -7.109411    0.085942    1.518800
H     -7.685233    1.877123   -0.370195
H     -8.779045    1.480344    0.962998
H     -7.786709    3.419348    2.292524
H     -8.801401    3.841659    0.801302
H     -6.669791    4.047449   -0.462487
H     -6.770255    5.205565    0.966557
H     -4.644868    4.274367    1.245279
H     -5.660870    3.175816    2.225267
H     -5.446645    2.538491   -0.771733
H     -3.964231    2.409484    0.194345
