63

C     -3.816365    0.642771    0.094553
C     -2.392563    0.880630    0.188079
C     -1.526784    0.078202   -0.522021
C     -0.148179    0.265241   -0.470094
C      0.350218    1.271656    0.307097
C      1.860917    1.411786    0.303084
C      2.372133    0.148588    0.883973
C      3.835820   -0.028786    1.019039
C      4.635875    0.010729   -0.232575
C      6.119072   -0.226082   -0.010368
C      6.383826   -1.575362    0.603637
C      7.883351   -1.707599    0.768259
C      2.207750    1.630367   -1.149009
C      2.171462    2.626523    1.148578
C     -0.485604    2.071682    1.012748
C     -1.868992    1.879291    0.957075
O     -2.641449    2.745595    1.713699
O     -2.011698   -0.945892   -1.314906
C     -3.199586   -1.600726   -0.913074
C     -4.203563   -0.760143   -0.241403
C     -5.524910   -0.671082   -1.023264
C     -6.486924    0.072100   -0.094262
C     -5.893013    0.276073    1.246700
C     -4.620001    1.033115    1.330851
O     -6.450832   -0.173012    2.216807
C     -3.737384   -2.275571   -2.174682
C     -2.739295   -2.752663   -0.006416
H     -4.223072    1.323782   -0.712156
H      0.516903   -0.370234   -1.037819
H      1.940098    0.036441    1.922460
H      1.962126   -0.713717    0.299992
H      4.264926    0.670568    1.774880
H      3.993948   -1.050747    1.471178
H      4.597996    1.073786   -0.602250
H      4.315131   -0.717050   -0.990327
H      6.525340    0.544446    0.664121
H      6.630519   -0.152132   -0.979678
H      5.948194   -1.652721    1.624854
H      6.021392   -2.399900   -0.034651
H      8.248477   -0.777331    1.246591
H      8.370469   -1.867122   -0.235397
H      8.064609   -2.557488    1.443553
H      2.514231    0.711180   -1.641062
H      2.883623    2.502065   -1.292400
H      1.272564    1.951401   -1.710584
H      1.636728    3.490449    0.677875
H      3.234497    2.903994    1.156954
H      1.838643    2.418750    2.167279
H     -0.069162    2.874274    1.629419
H     -2.217187    3.474857    2.256303
H     -4.508141   -1.287282    0.712793
H     -5.919428   -1.679238   -1.232151
H     -5.364733   -0.093449   -1.960399
H     -6.669074    1.077999   -0.566737
H     -7.432661   -0.501823   -0.060224
H     -4.911876    2.120337    1.284972
H     -4.088386    0.803678    2.269617
H     -4.082413   -1.552750   -2.921426
H     -4.490940   -3.009995   -1.853988
H     -2.869054   -2.843820   -2.599289
H     -3.291159   -3.703036   -0.274941
H     -3.062040   -2.491328    1.016069
H     -1.654369   -2.884272   -0.000189
