99

C     -2.594694    2.381398   -0.032511
N     -2.853102    1.197877   -0.807402
C     -3.783223    0.352941   -0.175372
C     -4.907651    1.214781    0.420656
C     -5.004917    2.473769   -0.454222
C     -6.290164    3.173452   -0.355672
C     -6.445528    4.066791    0.828508
C     -5.234187    5.013195    0.802018
C     -3.999432    4.169129    0.997085
C     -3.776231    3.332281   -0.219581
C     -4.498628   -0.597671   -1.084479
N     -5.484212   -1.465126   -0.592737
C     -6.225051   -2.407326   -1.375089
C     -5.371302   -3.434497   -2.042323
C     -7.053229   -1.721916   -2.455153
C     -7.221227   -3.116185   -0.479986
O     -4.211576   -0.616250   -2.301690
C     -1.662091    0.598545   -1.336073
C     -0.760274    0.001948   -0.279064
C      0.546782   -0.347885   -0.951758
C      0.288985   -1.554559   -1.863915
C     -0.162756   -2.743100   -1.119317
C     -1.476430   -3.035028   -0.846262
C     -1.835311   -4.182333   -0.149396
C     -0.839218   -5.037110    0.272041
C      0.503066   -4.772553    0.013252
C      0.805061   -3.625515   -0.679940
N      1.548474   -0.718407    0.041405
C      2.913423   -0.374227   -0.013067
C      3.875451   -0.798186    1.070870
N      5.214770   -0.416474    0.757562
C      5.923612    0.621449    1.411310
C      7.296510    1.007078    1.101099
N      7.865938    2.017383    1.761100
C      9.134163    2.383731    1.502251
C      9.911703    1.744023    0.549698
C     11.208205    2.148485    0.318165
C     11.717320    3.209243    1.058810
C     10.965794    3.847563    1.997730
C      9.678765    3.422280    2.205774
C      9.345917    0.706899   -0.137191
C      8.050518    0.353979    0.147170
O      5.278652    1.238355    2.332777
C      3.670879   -2.222450    1.449094
C      4.597524   -2.676402    2.519407
N      5.598728   -1.816460    3.026597
O      4.449464   -3.851654    2.946735
O      3.339040    0.298269   -0.982383
O     -0.434882    1.091568    0.583588
H     -2.560932    2.087867    1.038615
H     -1.655959    2.891074   -0.270983
H     -3.342810   -0.262029    0.654941
H     -4.707170    1.467215    1.468560
H     -5.884700    0.708373    0.337269
H     -4.887792    2.097899   -1.514466
H     -6.410747    3.804281   -1.276499
H     -7.108656    2.414755   -0.437133
H     -6.448494    3.500842    1.779573
H     -7.376189    4.623787    0.720398
H     -5.219808    5.442921   -0.225016
H     -5.355092    5.792934    1.588406
H     -3.137668    4.876587    1.146213
H     -4.151996    3.536725    1.903747
H     -3.615524    3.948514   -1.101306
H     -5.682510   -1.404551    0.447237
H     -5.407194   -3.338454   -3.145875
H     -4.341678   -3.434377   -1.647191
H     -5.757296   -4.469725   -1.823248
H     -7.968431   -2.320239   -2.637360
H     -7.416790   -0.718399   -2.110062
H     -6.480233   -1.632701   -3.402649
H     -6.745862   -3.372452    0.480217
H     -7.598440   -4.042448   -0.985495
H     -8.059176   -2.409207   -0.305025
H     -1.084267    1.380643   -1.854276
H     -1.951324   -0.146508   -2.071089
H     -1.189444   -0.817509    0.287925
H      0.886363    0.446473   -1.629511
H     -0.418215   -1.304859   -2.678464
H      1.249210   -1.812526   -2.404121
H     -2.263058   -2.377409   -1.168715
H     -2.892683   -4.405350    0.060967
H     -1.079568   -5.945577    0.820766
H      1.283179   -5.416557    0.327556
H      1.853510   -3.424695   -0.883921
H      1.205468   -1.278752    0.848936
H      3.576735   -0.166192    1.962018
H      5.740035   -0.930686   -0.018559
H     11.839490    1.649301   -0.434811
H     12.742405    3.496192    0.845811
H     11.347201    4.667492    2.576647
H      9.092377    3.947544    2.964277
H      9.930530    0.176253   -0.896768
H      7.644563   -0.469811   -0.418040
H      2.616171   -2.377518    1.758551
H      3.829130   -2.931967    0.603563
H      5.398188   -1.102787    3.742503
H      6.570704   -1.901053    2.670516
H     -0.208981    0.721567    1.474350
