70

C      0.502587   -1.076614    0.210312
C     -0.218677   -0.151051   -0.702132
C     -1.671598   -0.452800   -0.765533
C     -2.204345    0.008344    0.570012
F     -1.564918    1.247699    0.821203
C     -1.610463   -0.896176    1.595816
O     -2.105156   -2.172436    1.648554
C     -0.101106   -0.847433    1.585304
C     -3.661009    0.274824    0.639020
C     -4.186998    0.703364   -0.673716
C     -4.865864    1.783168   -0.840924
C     -5.190392    2.720901    0.239281
O     -5.845464    3.762804    0.094597
C     -4.674994    2.336493    1.542649
C     -3.995162    1.235370    1.668342
C     -3.821103   -0.128387   -1.883346
C     -2.325383    0.054741   -1.991247
C     -4.511158   -0.955632    0.986140
C      0.588268   -0.154063   -1.923339
C      1.949334    0.148713   -1.302364
C      1.896532   -0.546455    0.088912
C      2.269583    0.431798    1.162848
C      3.554615    1.073333    0.773697
C      4.698982    1.070832    1.501952
C      5.799733    1.722892    1.005553
C      5.763009    2.378789   -0.217196
C      4.608378    2.387749   -0.964274
C      3.523661    1.731996   -0.451473
C      2.193717    1.638740   -1.153331
C      2.930594   -1.600768    0.029492
O      3.525616   -1.820074    1.116662
C      3.360615   -2.422947   -1.086292
O      4.220516   -3.459835   -0.645328
C      0.464939   -2.522107   -0.091238
O     -0.001107    0.363137   -0.000000
H     -0.113494    0.878119   -0.248844
H     -1.783453   -1.577100   -0.785381
H     -1.886189   -0.432569    2.599776
H     -2.502207   -2.538931    0.839891
H      0.232325   -1.705762    2.240820
H      0.234988    0.057783    2.087238
H     -5.241449    2.044187   -1.859219
H     -4.864729    2.986886    2.427895
H     -3.639771    1.036923    2.715371
H     -4.084595   -1.187189   -1.715642
H     -4.309582    0.216341   -2.790627
H     -2.128917    1.143770   -2.092188
H     -1.907695   -0.518579   -2.849372
H     -4.562860   -1.691459    0.176257
H     -5.593209   -0.622650    1.101939
H     -4.278168   -1.435848    1.914426
H      0.596333   -1.090327   -2.501823
H      0.346914    0.679648   -2.591365
H      2.771711   -0.216596   -1.914237
H      2.447478   -0.118515    2.089288
H      1.559847    1.281144    1.267350
H      4.691783    0.543819    2.461232
H      6.717820    1.722148    1.587501
H      6.639149    2.887841   -0.593708
H      4.556819    2.889376   -1.914342
H      2.281903    2.023503   -2.191536
H      1.465118    2.166059   -0.547402
H      2.553168   -2.889252   -1.640482
H      3.919289   -1.830987   -1.877447
H      5.137680   -3.324372   -0.967745
H      0.323949   -2.833079   -1.114790
H     -0.302235   -3.090871    0.494829
H      1.425390   -2.959234    0.315142
H     -0.824985   -0.181947   -0.000000
H      0.826092   -0.181190    0.000000
