53

O     -2.295427   -2.668264    1.964892
C     -2.763820   -2.366623    0.691682
C     -1.937471   -3.099561   -0.387766
C     -1.222952   -2.122551   -1.340243
C     -0.521122   -1.155513   -0.492650
O      0.187592   -2.009257    0.426775
C      0.482653   -0.215277   -0.980108
C      0.121750    1.048276   -1.679382
C     -1.189034    1.574042   -1.293705
C     -1.780349    2.743554   -1.755333
C     -3.059143    3.108430   -1.352877
C     -3.767623    2.280804   -0.466077
O     -5.040921    2.598389   -0.036180
C     -3.208169    1.106206    0.012898
O     -3.573632    0.028918    0.873863
C     -2.839044   -1.022694    0.287553
C     -1.496802   -0.361110    0.266463
C     -0.927061    0.089099    1.523482
C      0.563828    0.145394    1.442087
N      1.205185    0.197490    0.213048
C      2.311186    1.025554    0.042838
C      3.536894    0.619016    0.836239
C      4.102508   -0.730075    0.562414
C      5.497691   -0.092296    0.591791
C      4.812427    1.219554    0.260445
C     -1.948141    0.858183   -0.448669
H     -3.060439   -2.788337    2.612365
H     -3.781287   -2.863480    0.643482
H     -2.509044   -3.855555   -0.918781
H     -1.106294   -3.607942    0.155442
H     -0.451075   -2.777101   -1.836850
H     -1.856042   -1.756115   -2.134577
H      1.099756   -2.188044    0.043793
H      1.175961   -0.763673   -1.679972
H      0.196174    0.932475   -2.802508
H      0.890050    1.844354   -1.447930
H     -1.193163    3.351659   -2.441239
H     -3.525787    4.016726   -1.706247
H     -5.480563    3.446271   -0.362968
H     -3.187970   -1.019937   -0.796066
H     -1.211503   -0.639315    2.334336
H     -1.374442    1.050915    1.891547
H      0.845615    1.124232    1.969976
H      1.037232   -0.593924    2.176348
H      2.084243    2.074539    0.313466
H      2.653045    1.049217   -1.029465
H      3.487036    0.843629    1.905606
H      3.959758   -1.427991    1.414871
H      3.942206   -1.179598   -0.416739
H      6.181552   -0.478619   -0.177579
H      5.922777   -0.025936    1.623727
H      5.227600    2.070951    0.838662
H      4.783607    1.360913   -0.832315
