50

C     -0.954056    0.355406   -0.606546
C     -1.488038   -1.020239   -0.362012
C     -0.730550   -1.926012    0.289743
C      0.638224   -1.514560    0.721999
C      0.743981   -0.082260    1.041989
C     -0.451736    0.791122    0.752970
C     -1.534713    0.749343    1.768023
C     -2.515585    1.869373    1.385273
C     -2.898434    1.810725   -0.026645
C     -2.188433    1.027563   -1.077896
O     -3.125758   -0.017928   -1.423734
C     -2.736366   -1.188879   -0.825690
C     -3.291969   -2.458848   -0.591124
C     -2.543675   -3.418340    0.077204
C     -1.241044   -3.164270    0.531136
O     -4.579118   -2.669028   -1.053833
C     -3.956019    2.489611   -0.439995
O     -0.007555    2.108257    0.624361
N      1.830093    0.535074    0.293937
C      3.078805   -0.104560    0.625612
C      4.286920    0.728274    0.319544
C      4.683236    1.233408   -0.980119
C      5.400087    0.000583   -0.394564
C      1.531567    0.571460   -1.113116
C      0.169174    0.243701   -1.560722
H      1.298867   -1.863069   -0.125550
H      0.899436   -2.169782    1.574516
H      0.982351    0.072275    2.118139
H     -1.084905    1.025657    2.749445
H     -2.116753   -0.183284    1.799776
H     -1.951596    2.810567    1.550425
H     -3.378769    1.904845    2.080018
H     -2.034072    1.619110   -1.983645
H     -2.985396   -4.390906    0.253322
H     -0.664212   -3.924459    1.054400
H     -4.973826   -3.580098   -0.882412
H     -4.527367    3.084358    0.279480
H     -4.317055    2.508195   -1.466863
H      0.645991    2.377940    1.304614
H      3.067923   -0.318816    1.715412
H      3.146246   -1.114649    0.128740
H      4.678527    1.240532    1.263148
H      4.086970    1.060213   -1.877083
H      5.314819    2.185434   -0.959513
H      5.211848   -0.964139   -0.909604
H      6.441832    0.142701   -0.068187
H      1.847156    1.558064   -1.497155
H      2.221839   -0.185641   -1.574205
H     -0.083392    0.927496   -2.428802
H      0.154501   -0.771518   -2.074212
