67

H      0.000000    0.000000    0.000000
C     -6.821105    0.657893    0.347302
C     -5.944790   -0.051625   -0.476810
N     -4.869650   -0.804527    0.070797
C     -3.878507   -1.491846   -0.710087
C     -2.458251   -1.273365   -0.166055
N     -2.437989   -1.376703    1.210303
C     -1.473770   -0.859361    2.046750
C     -1.313415    0.581278    2.290324
C     -0.959802    1.463140    1.130659
N      0.325321    1.077037    0.541672
N      0.599555    0.227886   -0.417823
C      1.919072    0.163143   -0.664502
N      2.495181    1.017517    0.186987
C      1.536706    1.582859    0.929638
O      1.667703    2.441282    1.845186
C      3.910651    1.289708    0.292574
C      4.595994    0.384353    1.271998
O      5.956699    0.637473    1.333638
C      6.842266    0.420422    0.317891
C      8.171086    0.804680    0.594465
C      9.117023    0.611803   -0.380134
C      8.780910    0.059091   -1.594375
C      7.500755   -0.318415   -1.877431
C      6.522324   -0.130469   -0.896196
C      2.608679   -0.680916   -1.674715
C      1.590525   -1.509094   -2.441508
C     -3.653117   -1.838081    1.833144
C     -4.791627   -0.871771    1.527414
C     -6.209141    0.039243   -1.825672
C     -7.269283    0.782906   -2.318845
C     -8.111574    1.471603   -1.439888
C     -7.868189    1.395071   -0.103778
Cl    -8.881946    2.230145    1.036316
Cl     0.000000    0.000000    0.000000
H     -6.642703    0.608488    1.414579
H     -3.891059   -1.085447   -1.736093
H     -4.109214   -2.596954   -0.707443
H     -2.041868   -0.418656   -0.689125
H     -1.890965   -2.167339   -0.588689
H     -0.466198   -1.248554    1.707503
H     -1.566165   -1.347329    3.074050
H     -2.154873    1.025262    2.895559
H     -0.437569    0.684622    3.017694
H     -1.754395    1.554991    0.399173
H     -0.837201    2.496851    1.591634
H      4.007004    2.332756    0.770737
H      4.433784    1.399902   -0.649832
H      4.500389   -0.701157    0.956727
H      4.132351    0.520925    2.280782
H      8.443741    1.237404    1.539457
H     10.140607    0.917089   -0.144043
H      9.573223   -0.061952   -2.310714
H      7.211571   -0.754488   -2.823142
H      5.503608   -0.468324   -1.125514
H      3.246551   -1.417982   -1.124123
H      3.196761   -0.027036   -2.338665
H      2.051097   -2.480683   -2.764748
H      0.778310   -1.783945   -1.736613
H      1.192632   -0.954739   -3.319049
H     -3.595278   -1.946111    2.910952
H     -3.927059   -2.803325    1.364692
H     -5.719770   -1.224545    1.978973
H     -4.571949    0.148430    1.912038
H     -5.607024   -0.463339   -2.545352
H     -7.448489    0.832702   -3.391819
H     -8.948142    2.060121   -1.804283
