51

C      5.754815   -0.485041    0.637767
C      7.091149   -0.418912    0.984337
C      7.875007    0.655349    0.611575
C      7.290039    1.647333   -0.108052
C      5.934083    1.606578   -0.473996
C      5.184418    0.540285   -0.095906
N      3.804122    0.446848   -0.425182
C      2.956692   -0.502977    0.288387
C      1.543557   -0.109530    0.447619
N      0.971615    0.728699   -0.520344
C     -0.153023    0.235509   -1.225682
C     -1.310802    0.133247   -0.275369
C     -2.559565   -0.396402   -0.936262
N     -3.664266   -0.487172   -0.005549
C     -4.868382    0.227019   -0.222057
C     -6.010909    0.172660    0.681067
C     -6.003867   -0.574636    1.839674
C     -7.135274   -0.577253    2.655932
C     -8.270211    0.146675    2.343268
N     -8.253020    0.867950    1.207892
C     -7.170236    0.874892    0.419741
O     -4.946833    0.943916   -1.250656
C     -2.345796   -1.749837   -1.557245
C      1.782530    1.697005   -1.124807
C      3.181827    1.231639   -1.456688
F      9.183833    0.754420    0.931922
H      5.179146   -1.346710    0.944959
H      7.585877   -1.208796    1.565461
H      7.882731    2.488549   -0.406646
H      5.528965    2.428991   -1.045177
H      3.348404   -0.671479    1.337684
H      3.108185   -1.477093   -0.242625
H      1.370609    0.356423    1.460216
H      0.936916   -1.062539    0.489564
H     -0.378919    0.950948   -2.065717
H      0.011040   -0.797818   -1.633143
H     -1.038232   -0.571803    0.530233
H     -1.480108    1.111931    0.209977
H     -2.825083    0.297857   -1.756003
H     -3.553183   -1.095509    0.835906
H     -5.133857   -1.148907    2.109254
H     -7.141287   -1.167213    3.577880
H     -9.134122    0.116752    3.009449
H     -7.200383    1.470252   -0.484623
H     -3.330688   -2.127179   -1.905428
H     -1.684494   -1.730271   -2.424530
H     -1.972223   -2.499627   -0.810381
H      1.889329    2.621663   -0.488263
H      1.322878    2.051178   -2.071515
H      3.122525    0.540945   -2.355187
H      3.724472    2.146228   -1.752731
