76

C     -0.664859    0.633471    1.043758
O      0.120367   -0.462815    0.805271
C      1.467300   -0.185003    0.801715
O      1.745406    0.806086   -0.096473
C      0.906738    1.879345   -0.103340
C     -0.556728    1.498206   -0.222377
C     -0.871441    0.618978   -1.364040
C     -2.315251    0.164022   -1.245843
O     -3.195959    1.186479   -1.499074
C     -2.517373   -0.587286    0.011807
C     -2.063442    0.118860    1.264686
C     -1.898654   -0.969259    2.332092
C     -3.170590   -1.750162    2.562088
C     -3.827458   -2.109654    1.280401
C     -4.283091   -3.318629    1.064223
C     -4.932810   -3.723410   -0.173087
O     -5.608056   -4.764445   -0.259841
C     -4.760155   -2.846493   -1.331614
C     -4.716273   -1.386631   -0.951988
C     -3.939868   -1.048199    0.258678
C     -4.711337    0.093224    0.957344
C     -1.459551    2.674134   -0.170866
C      0.896099    2.405203    1.352536
C     -0.157724    1.582512    2.061100
C      1.289780    2.932711   -1.036452
O      0.514842    3.893752   -1.194900
C      2.519753    2.953993   -1.810764
O      3.420159    1.944985   -1.401418
C      4.649574    1.807838   -2.069688
O      4.875355    2.588452   -3.013037
C      5.599124    0.811766   -1.678753
C      5.424463   -0.014691   -0.615384
C      6.366391   -0.970839   -0.288202
N      7.492208   -1.121256   -1.007605
C      7.710831   -0.315865   -2.081170
C      6.784634    0.626716   -2.405989
C      2.219036   -1.437286    0.474005
C      2.977723   -2.061550    1.368285
C      3.064109   -1.470570    2.738077
H      1.738011    0.068825    1.849863
H     -0.215750   -0.242030   -1.504452
H     -0.830430    1.235939   -2.306531
H     -2.432960   -0.577489   -2.092633
H     -3.330025    1.359411   -2.451336
H     -1.904768   -1.527901   -0.053126
H     -2.734107    0.900194    1.616050
H     -1.577427   -0.552754    3.289226
H     -1.137592   -1.676060    1.937020
H     -2.831572   -2.703037    3.072527
H     -3.840511   -1.281390    3.301184
H     -4.146806   -4.037345    1.890139
H     -3.851344   -3.172788   -1.884833
H     -5.612890   -3.013437   -2.022597
H     -5.801520   -1.116149   -0.761319
H     -4.423805   -0.754852   -1.790020
H     -4.560486    0.111421    2.031608
H     -4.458191    1.067069    0.539739
H     -5.796355   -0.080958    0.767990
H     -1.097965    3.543051    0.409284
H     -1.635425    3.046790   -1.208466
H     -2.444488    2.421943    0.320491
H      1.901884    2.280402    1.802591
H      0.692037    3.495353    1.376995
H      0.209852    1.122750    2.991294
H     -0.996883    2.261970    2.353966
H      3.052884    3.937224   -1.741246
H      2.330581    2.751383   -2.910134
H      4.550618    0.062995    0.006484
H      6.194715   -1.606286    0.558272
H      8.629885   -0.478779   -2.623198
H      6.941832    1.276442   -3.256936
H      2.164258   -1.875887   -0.516843
H      3.522473   -2.959852    1.148508
H      2.071167   -1.434420    3.231457
H      3.721702   -2.077382    3.392656
H      3.546132   -0.451055    2.705090
