26

C      1.974487    0.596423   -0.015246
C      3.319050    0.877340    0.071882
C      4.250576   -0.115914    0.249000
N      3.817491   -1.382357    0.336547
C      2.518285   -1.669870    0.253378
C      1.530788   -0.695226    0.072650
C      0.155041   -1.093382   -0.045082
N     -0.990328   -0.406144   -0.401106
C     -1.210867    0.937178   -0.829829
C     -1.712563    1.678435    0.413463
O     -2.542851    0.819696    1.133312
C     -3.208804   -0.112458    0.350844
C     -2.303008   -1.143898   -0.287562
O     -0.051093   -2.353304    0.241352
H      1.300259    1.444431   -0.129759
H      3.701364    1.903221    0.003675
H      5.319425    0.089875    0.319936
H      2.271704   -2.735558    0.336786
H     -2.142875    0.958760   -1.511041
H     -0.459536    1.461905   -1.370393
H     -2.173097    2.625398    0.135456
H     -0.828570    1.878456    1.051875
H     -3.886701   -0.664152    1.034740
H     -3.832570    0.426834   -0.387007
H     -2.202105   -2.038858    0.308725
H     -2.613504   -1.286832   -1.336594
