15

C     -1.691918   -0.493600   -0.300626
C     -0.255820   -0.392326   -0.199830
C      0.583649   -1.388970   -0.648541
N      1.910676   -1.227355   -0.522675
C      2.440973   -0.130108    0.024108
C      1.656016    0.906855    0.494176
C      0.297966    0.731826    0.360744
O     -2.198853   -1.517166   -0.811121
N     -2.500454    0.560176    0.176661
H      0.166528   -2.306347   -1.104748
H      3.516916   -0.002148    0.124678
H      2.071251    1.793906    0.935717
H     -0.360058    1.532751    0.721930
H     -2.912589    0.521528    1.136288
H     -2.724286    1.410979   -0.386761
