27

C      2.569895   -0.895483   -0.653755
C      3.872859   -0.452792   -0.572452
C      4.155631    0.793396   -0.067151
N      3.120672    1.534813    0.331344
C      1.812607    1.107431    0.256559
C      1.478940   -0.113363   -0.233084
C      0.155759   -0.663605   -0.386094
N     -1.091541   -0.217747   -0.001060
C     -1.390935    0.966601    0.717910
C     -1.617051    2.196010   -0.143594
C     -2.265447   -1.048589   -0.373100
C     -2.583322   -2.054501    0.678139
O      0.081489   -1.830333   -1.017267
H      2.369037   -1.882466   -1.054297
H      4.714805   -1.054076   -0.896144
H      5.173527    1.171087    0.010121
H      1.047689    1.766795    0.581528
H     -0.777851    1.197137    1.599557
H     -2.441484    0.854670    1.226200
H     -2.607276    2.140790   -0.636302
H     -0.796954    2.372912   -0.846598
H     -1.655937    3.057859    0.555810
H     -2.066546   -1.508060   -1.375193
H     -3.152726   -0.399193   -0.521367
H     -3.116589   -2.907803    0.164872
H     -1.689540   -2.442925    1.217311
H     -3.299708   -1.688565    1.438109
