35

C     -0.396209    1.421274   -0.533992
C     -1.525237    2.198632   -0.422657
N     -1.402058    3.583430   -0.717927
O     -2.502560    4.402307   -0.616303
O     -0.343409    4.100102   -1.066499
C     -2.749454    1.679054   -0.035239
C     -2.870037    0.341537    0.252578
C     -1.765048   -0.446980    0.148630
C     -0.543921    0.091055   -0.235223
C      0.740031   -0.599316   -0.323206
N      0.835349   -1.829413   -0.769050
C     -0.186982   -2.758183   -1.240846
C     -1.268115   -2.900206   -0.205207
O     -1.501684   -4.049743    0.174988
N     -2.032112   -1.855290    0.365723
C     -3.170388   -2.121746    1.201036
C      1.958482    0.058894    0.076754
C      2.124499    1.253747    0.695853
C      3.387790    1.809238    0.935420
C      4.520517    1.144816    0.544831
C      4.393824   -0.070066   -0.082766
C      3.147569   -0.588235   -0.305209
H      0.552666    1.771162   -0.887028
H     -3.619403    2.346523    0.038863
H     -3.796753   -0.105530    0.559033
H      0.291261   -3.726258   -1.391866
H     -0.576685   -2.372409   -2.200930
H     -4.129178   -2.116473    0.632948
H     -3.202942   -1.446938    2.080208
H     -3.067427   -3.146147    1.603661
H      1.266166    1.786804    1.085313
H      3.493866    2.759303    1.425963
H      5.526694    1.548713    0.715501
H      5.305261   -0.616746   -0.401917
H      3.105628   -1.546910   -0.802555
