63

C     -2.646883   -0.992046    0.499613
C     -3.449191    0.252252    0.698112
C     -4.894312   -0.196606    0.620526
O     -5.367169   -0.130775   -0.705669
C     -4.830351   -1.689498    0.957342
C     -3.613787   -2.097560    0.132522
C     -5.758476    0.473834    1.555258
C     -6.486275    1.054662    2.331053
C     -3.243214    1.292977   -0.361156
C     -1.840659    1.511577   -0.793037
C     -0.866649    0.461758   -0.272006
C     -1.530139   -0.852479   -0.497715
C     -0.664423   -2.056187   -0.419476
C      0.709640   -1.870082   -1.004146
C      1.263440   -0.531457   -0.751002
C      2.485729   -0.421657   -0.303417
C      3.123467    0.843278   -0.018682
C      2.392662    1.981218   -0.230237
C      1.002396    1.964556   -0.686573
C      0.436458    0.640992   -1.035080
C      0.172092    0.623195   -2.537911
C      3.220830    3.030409    0.090215
N      4.384020    2.486484    0.471669
N      4.366778    1.173298    0.420679
C      5.395032    0.248278    0.743002
C      6.140377   -0.394284   -0.220935
C      7.137327   -1.291755    0.096727
C      7.404645   -1.562006    1.432127
F      8.385498   -2.445238    1.754478
C      6.657032   -0.917352    2.393978
C      5.659615   -0.019165    2.065383
C     -3.217094    0.843239    2.072689
H     -2.193079   -1.273717    1.473054
H     -6.186591    0.413365   -0.689180
H     -4.547646   -1.839989    2.019906
H     -5.733742   -2.223383    0.663830
H     -3.893903   -2.085647   -0.938041
H     -3.212974   -3.077299    0.470009
H     -7.120674    1.568026    3.024578
H     -3.630524    2.257520    0.051583
H     -3.912154    1.074560   -1.236964
H     -1.791084    1.406063   -1.917572
H     -1.478173    2.539661   -0.598513
H     -0.656489    0.707921    0.778251
H     -1.998261   -0.827396   -1.506041
H     -1.149844   -2.890068   -0.992064
H     -0.634439   -2.409989    0.642753
H      0.739938   -2.102166   -2.092601
H      1.362631   -2.620857   -0.517509
H      3.110725   -1.320200   -0.115047
H      0.885075    2.664073   -1.554367
H      0.400234    2.460778    0.129374
H     -0.654373   -0.031167   -2.816583
H      1.086609    0.221424   -3.031061
H      0.042652    1.650182   -2.939339
H      3.010790    4.080123    0.053729
H      5.933384   -0.185151   -1.250055
H      7.729622   -1.802852   -0.646959
H      6.874977   -1.136756    3.436477
H      5.070872    0.488608    2.814407
H     -2.930635    1.909875    2.025245
H     -2.365089    0.291297    2.565799
H     -4.086251    0.679301    2.749919
