36

C     -0.241264   -1.994358   -0.445768
C     -1.317337   -2.853105   -0.367117
C     -2.614887   -2.396087   -0.222322
C     -2.849611   -1.041365   -0.153561
C     -1.768058   -0.182784   -0.232772
C     -0.475985   -0.640060   -0.377015
C      0.567518    0.371344   -0.446945
C      1.934369   -0.090522   -0.335418
C      2.685748   -0.457177   -1.413221
C      3.982240   -0.886791   -1.222146
C      4.545941   -0.958068    0.027722
C      3.806476   -0.594899    1.111940
C      2.498406   -0.161212    0.921509
C      0.204146    1.436222    0.596213
N     -0.962174    2.104432    0.108322
C     -1.268689    3.320666    0.801877
C     -2.087618    1.274526   -0.152543
N     -4.172994   -0.543307   -0.004810
H      0.786042   -2.379814   -0.561204
H     -1.170381   -3.928200   -0.417767
H     -3.463818   -3.069662   -0.160133
H      0.458060    0.903092   -1.435093
H      2.296492   -0.424558   -2.443888
H      4.620166   -1.190398   -2.059518
H      5.578209   -1.300463    0.176459
H      4.247626   -0.650127    2.095712
H      1.976042    0.109581    1.831225
H      1.001641    2.161848    0.732632
H     -0.068281    0.917266    1.538900
H     -1.354639    4.125981    0.024963
H     -0.450545    3.587313    1.491299
H     -2.254186    3.211638    1.318734
H     -2.834145    1.428112    0.662047
H     -2.547118    1.542736   -1.133358
H     -4.655811   -0.032043   -0.776676
H     -4.631582   -0.719757    0.921721
