43

C      5.469246   -1.457182    1.239512
C      6.849128   -1.665622    1.168166
N      7.335317   -0.880870    0.211177
C      6.308513   -0.172890   -0.336055
C      5.137330   -0.519307    0.292750
C      3.947048    0.063269   -0.083025
N      4.006508    0.976360   -1.087299
C      5.174480    1.291939   -1.681930
N      6.351124    0.735091   -1.331140
N      2.718824   -0.261339    0.534420
C      1.465205    0.346189    0.145174
C      0.341830   -0.202926    0.983771
C     -0.993964    0.375376    0.644448
C     -1.401249    0.123024   -0.783536
C     -2.731989    0.708547   -1.097023
C     -3.834070    0.147553   -0.235932
C     -5.164917    0.756849   -0.576728
C     -6.196827    0.112941    0.356751
C     -6.226926   -1.374624    0.143553
H      4.785241   -1.932914    1.903624
H      7.431283   -2.333340    1.767592
H      8.336207   -0.811743   -0.079796
H      5.184657    2.029904   -2.485415
H      2.731625   -0.967626    1.298596
H      1.488389    1.430948    0.091660
H      1.269599   -0.015631   -0.907245
H      0.554689    0.044757    2.045233
H      0.293440   -1.308967    0.922825
H     -1.018413    1.466283    0.855995
H     -1.742339   -0.178519    1.285311
H     -0.650419    0.631908   -1.448836
H     -1.381825   -0.967567   -0.982014
H     -2.730835    1.816398   -1.055707
H     -2.976762    0.459269   -2.165967
H     -3.636839    0.419467    0.839081
H     -3.891421   -0.931035   -0.402896
H     -5.467493    0.637480   -1.619309
H     -5.133806    1.828921   -0.277252
H     -7.207296    0.572806    0.180625
H     -5.955471    0.340224    1.412764
H     -5.745819   -1.678545   -0.807905
H     -5.776607   -1.948345    0.980057
H     -7.314396   -1.678960    0.141926
