39

C      2.124005    0.001764   -1.031668
C      3.458461    0.006268   -0.695798
O      4.387082   -0.005125   -1.725834
C      3.827941    0.021587    0.621436
C      2.845037    0.032178    1.582055
C      1.482045    0.027424    1.223847
C      1.110459    0.012024   -0.096466
C     -0.314390    0.005547   -0.494984
C     -1.086511    0.631598    0.613749
C     -0.874089   -0.215420    1.840594
N     -1.078096   -1.591618    1.686670
C     -1.350212   -2.103022    0.405312
C     -0.699195   -1.432619   -0.744595
C      0.527077    0.040994    2.337703
C     -2.512743    0.909617    0.325638
C     -2.840078    1.036464   -1.131942
C     -1.699173    1.499268   -1.972449
C     -0.438231    0.736278   -1.807534
H      1.795480   -0.010487   -2.081772
H      5.358896   -0.001945   -1.491379
H      4.885942    0.024901    0.866601
H      3.138747    0.044309    2.624834
H     -0.583859    1.619656    0.839044
H     -1.577335    0.171271    2.630111
H     -0.384374   -2.175937    2.234256
H     -1.022090   -3.186192    0.388409
H     -2.470287   -2.176274    0.272006
H     -1.396835   -1.472191   -1.609975
H      0.214956   -1.989300   -1.087711
H      0.848210   -0.776284    3.047152
H      0.594180    0.974213    2.934408
H     -2.825265    1.814657    0.900131
H     -3.139707    0.081117    0.730618
H     -3.648414    1.815169   -1.213399
H     -3.251418    0.103578   -1.531926
H     -2.014612    1.421304   -3.039648
H     -1.550750    2.606403   -1.806845
H      0.411087    1.475310   -1.885684
H     -0.251942    0.023518   -2.654965
