44

C     -0.548207    2.137381   -0.269972
C     -0.993193    3.438535   -0.357072
C     -2.313739    3.751149   -0.161992
C     -3.253387    2.790467    0.127674
C     -2.799979    1.492935    0.213031
C     -1.468882    1.168938    0.017979
C     -0.807409   -0.150865    0.074084
C     -1.601789   -1.408707   -0.063722
C     -2.935527   -1.587324   -0.352764
C     -3.946300   -0.529730   -0.613413
C     -3.878260    0.486830    0.524502
C     -3.454287   -2.865951   -0.428691
C     -2.603020   -3.927698   -0.208797
C     -1.268463   -3.793841    0.081722
C     -0.767873   -2.508558    0.153473
N      0.383203   -0.286138    0.236455
O      1.574392    0.161698    0.415853
C      2.518143   -0.321474    1.390784
C      3.814861    0.404389    1.333494
N      4.538901    0.355596    0.130328
C      5.105960   -0.862676   -0.285442
C      4.408093    1.406218   -0.799577
H      0.472293    1.888269   -0.425046
H     -0.320395    4.257607   -0.581472
H     -2.671909    4.786799   -0.232513
H     -4.300679    2.970481    0.290450
H     -3.719927    0.045678   -1.549994
H     -4.948594   -0.991440   -0.688082
H     -4.825631    1.021734    0.570084
H     -3.623073   -0.074714    1.435050
H     -4.503412   -2.968536   -0.657929
H     -3.012910   -4.935514   -0.268987
H     -0.597712   -4.624495    0.254905
H      0.274468   -2.296240    0.376124
H      2.600360   -1.423010    1.360068
H      2.046893   -0.082262    2.384254
H      4.482684    0.066616    2.169960
H      3.604930    1.477508    1.568960
H      5.882815   -0.642840   -1.072571
H      5.696815   -1.344400    0.546852
H      4.421015   -1.619898   -0.697994
H      4.145780    2.338267   -0.262288
H      5.428517    1.609737   -1.237571
H      3.764432    1.189479   -1.670736
