44

C     -1.651973    1.875388    1.483038
C     -2.501557    2.752285    2.168139
Cl    -1.773503    4.031009    3.095156
C     -3.863183    2.601984    2.105801
C     -4.411415    1.589220    1.368827
C     -3.535498    0.728946    0.693059
C     -2.184097    0.844494    0.732623
C     -1.223256   -0.135805    0.116715
C     -1.668344   -1.343414   -0.584934
C     -3.016894   -1.659298   -0.765889
C     -3.391968   -2.859596   -1.293898
C     -2.451979   -3.781265   -1.658115
C     -1.126508   -3.490579   -1.485255
C     -0.723301   -2.258621   -0.939449
S     -4.299316   -0.517277   -0.321413
C      0.050215    0.195017    0.083568
C      1.202662   -0.497864   -0.445771
C      2.028764    0.719581   -1.142634
C      2.236409    1.810501   -0.166330
C      2.825559    1.307927    1.139591
N      3.310538   -0.026280    0.827533
C      2.226993   -0.924618    0.572451
C      4.211057    0.073597   -0.326469
C      3.308494    0.076358   -1.555945
H     -0.598771    2.037459    1.586373
H     -4.536495    3.273475    2.632521
H     -5.480697    1.425794    1.286578
H     -4.466466   -3.072078   -1.421382
H     -2.751589   -4.736405   -2.082903
H     -0.362245   -4.206763   -1.767599
H      0.273598   -2.213055   -0.763794
H      0.275190    1.187263    0.533372
H      1.211506   -1.004888   -1.406514
H      1.412728    1.090130   -1.963601
H      1.457306    2.563340   -0.059406
H      3.105074    2.406284   -0.621927
H      2.126239    1.315550    1.965829
H      3.754872    1.880564    1.435656
H      1.744329   -1.092139    1.585505
H      2.727457   -1.893743    0.257434
H      4.678803    1.072086   -0.275411
H      4.947880   -0.743828   -0.348912
H      3.104080   -0.968468   -1.854728
H      3.799300    0.567732   -2.417488
