56

C      5.293661    0.643779   -0.572781
C      6.438287    1.345041   -0.858610
C      7.680781    0.918622   -0.388087
C      7.740495   -0.240932    0.385391
C      6.581148   -0.951139    0.675475
C      5.372247   -0.513999    0.194969
C      4.422439   -1.401638    0.649217
N      5.098865   -2.321220    1.379227
O      6.366463   -2.054285    1.389781
C      3.009610   -1.447661    0.219410
C      2.189911   -0.851243    1.323881
C      1.554492    0.446414    0.836230
N      0.954090    0.274919   -0.405754
C     -0.436208    0.191552   -0.486644
C     -1.214967    1.448208   -0.171553
C     -2.635062    1.042222   -0.200747
C     -3.152581    0.419076    0.917797
N     -4.418441   -0.043454    0.943531
C     -5.179778    0.126306   -0.177381
N     -4.693187    0.730036   -1.268971
C     -3.411887    1.209167   -1.327980
O     -2.985997    1.757817   -2.348687
C     -5.505333    0.839337   -2.326446
C     -6.796525    0.352337   -2.311769
C     -7.284782   -0.271528   -1.173307
C     -6.451327   -0.376650   -0.100444
C     -6.926984   -1.046389    1.161827
C     -2.341449    0.267614    2.127507
C      1.758267   -0.053184   -1.483205
C      2.792742   -1.082650   -1.155973
F      8.821939    1.596294   -0.660273
H      4.330405    1.017848   -0.904691
H      6.380203    2.272682   -1.453342
H      8.680955   -0.602597    0.763409
H      2.785918   -2.617862    0.295206
H      1.450373   -1.541457    1.711028
H      2.823196   -0.526383    2.218786
H      2.396877    1.204476    0.770899
H      0.878738    0.782256    1.665676
H     -0.880569   -0.664507   -0.002811
H     -0.665238    0.020985   -1.602491
H     -0.927890    1.981973    0.719108
H     -1.051219    2.168164   -1.029971
H     -5.106683    1.324611   -3.215608
H     -7.439354    0.439081   -3.165872
H     -8.271125   -0.665002   -1.107327
H     -6.922800   -2.146447    0.891462
H     -6.197690   -0.886854    1.984907
H     -7.959851   -0.764194    1.411425
H     -1.628381   -0.575905    2.138622
H     -1.749181    1.203572    2.346734
H     -2.994911    0.164132    3.037099
H      1.057364   -0.461033   -2.313241
H      2.261354    0.844729   -1.913306
H      3.707274   -0.889034   -1.772315
H      2.401306   -2.036003   -1.712094
