59

C     -0.283212   -2.330843    0.134558
C      0.265140   -0.926158    0.126695
C     -0.516008   -0.168909   -0.871292
N     -1.927226   -0.333064   -0.904181
C     -2.633478    0.923628   -0.736262
C     -4.080494    0.692024   -0.914019
C     -4.979123    1.798458   -0.640983
C     -4.493193    3.014275   -0.231846
C     -5.316541    4.093235    0.037982
C     -6.669214    3.890073   -0.124904
F     -7.531319    4.902458    0.121781
C     -7.184295    2.668733   -0.537886
C     -6.330560    1.614353   -0.797905
O     -4.570079   -0.406171   -1.286909
C     -2.497286   -1.352309   -0.118872
C     -1.650622   -2.175202    0.760126
C      1.728250   -0.847694   -0.223727
O      2.077514    0.523154   -0.187693
C      3.322542    1.019371   -0.446809
C      3.567832    2.374710   -0.387404
C      4.830441    2.886207   -0.649371
C      5.888054    2.049089   -0.979981
O      7.007161    2.842352   -1.182238
C      6.759915    4.126453   -0.640884
O      5.341524    4.174292   -0.660529
C      5.625406    0.698433   -1.034745
C      4.350987    0.188556   -0.769723
C      0.554603   -3.297929    0.828947
C      1.065626   -4.389896    0.165762
C      1.870254   -5.330840    0.807489
C      2.164136   -5.173741    2.125788
F      2.946680   -6.087381    2.753610
C      1.667583   -4.091289    2.816419
C      0.864954   -3.159773    2.161028
H     -0.431505   -2.631709   -0.926740
H      0.137602   -0.452542    1.127143
H     -0.130904   -0.461685   -1.893547
H     -0.300948    0.935610   -0.814923
H     -2.297273    1.621002   -1.541154
H     -2.389026    1.310445    0.283624
H     -3.421537    3.192955   -0.097052
H     -4.972098    5.059265    0.359602
H     -8.243487    2.504445   -0.667286
H     -6.743724    0.656081   -1.122745
H     -3.058181   -2.061412   -0.790011
H     -3.297365   -0.895896    0.538913
H     -1.542578   -1.649127    1.749780
H     -2.062499   -3.189264    0.924322
H      1.948459   -1.226444   -1.224783
H      2.379387   -1.341394    0.552383
H      2.732998    3.027294   -0.127452
H      7.101669    4.203948    0.411298
H      7.198687    4.923009   -1.284620
H      6.413570    0.015408   -1.286204
H      4.205621   -0.888239   -0.828741
H      0.856913   -4.550885   -0.878640
H      2.276239   -6.192231    0.294381
H      1.917732   -3.999104    3.848537
H      0.486296   -2.318187    2.723392
