37

C     -1.929425    0.683809    0.405585
C     -1.455010   -0.251273   -0.480422
C     -0.022400   -0.385231   -0.872549
C      0.828521    0.783032   -0.600655
N      1.818602    0.564368    0.418583
C      1.684196   -0.584684    1.200657
C      0.968332   -1.759665    0.651812
O      0.490283   -1.618642   -0.607618
C      3.142206    0.908019   -0.017131
C      3.681356    0.076647   -1.133394
C      4.149152    1.050296    1.079282
C     -2.360293   -1.086293   -1.098993
C     -3.728163   -0.982291   -0.831970
C     -4.164655   -0.029057    0.063326
C     -3.280660    0.817200    0.694007
C     -5.616907    0.169113    0.384927
F     -5.764959    0.154397    1.739875
F     -5.998193    1.408660   -0.112632
F     -6.351859   -0.851502   -0.201117
H     -1.192896    1.314336    0.900593
H     -0.125000   -0.393192   -2.040154
H      1.433884    1.094765   -1.503698
H      0.260988    1.731221   -0.370440
H      1.154809   -0.289117    2.153438
H      2.691719   -0.890550    1.575621
H      1.653649   -2.670313    0.630249
H      0.142607   -2.119313    1.338020
H      3.028355    1.960012   -0.450600
H      2.914878   -0.263907   -1.852521
H      4.373764    0.706044   -1.742865
H      4.309401   -0.772055   -0.781707
H      4.454738    0.130565    1.573639
H      3.793721    1.856444    1.778619
H      5.085222    1.452112    0.576786
H     -2.050869   -1.851592   -1.820616
H     -4.451674   -1.651283   -1.317693
H     -3.567416    1.588918    1.401277
