55

C      0.748279   -1.084570   -0.261444
C     -0.680706   -1.092665    0.121510
C     -1.359183   -0.022378   -0.749921
C     -2.609051    0.507843   -0.182896
C     -3.257251   -0.436052    0.808981
C     -3.641170   -1.634956    0.097242
O     -4.772499   -2.022630    0.019029
C     -2.651609   -2.515581   -0.617493
C     -1.282090   -2.432996   -0.031306
C     -4.379637    0.489048    1.187534
O     -5.592260    0.306790    1.309072
C     -3.610767    1.747249    1.388578
C     -2.568662    1.740106    0.572826
C     -3.604572    0.726160   -1.324347
C     -0.390744    0.981396   -1.272541
O     -1.090726    2.145092   -1.587436
C      0.735712    1.335460   -0.364701
C      1.451617    0.174066    0.223034
C      2.803491   -0.109532   -0.412803
O      2.699211   -0.013076   -1.805579
C      3.032533   -1.555311    0.009732
C      1.634239   -2.134924    0.268896
C      3.887335    0.732705    0.110813
O      4.674818    1.551879   -0.709447
C      5.706916    2.343636   -0.151326
O      4.159367    0.756324    1.330157
C      1.641330    0.222710    1.688372
H      0.817773   -1.063890   -1.369586
H     -0.754423   -0.781408    1.175905
H     -1.670723   -0.635960   -1.655366
H     -2.689729   -0.578597    1.731014
H     -3.015395   -3.565193   -0.417122
H     -2.699461   -2.395439   -1.709114
H     -1.327129   -2.951579    0.971431
H     -0.616329   -3.060257   -0.646695
H     -3.878233    2.544145    2.098709
H     -1.873858    2.578740    0.567932
H     -3.663919    1.808278   -1.587052
H     -4.629053    0.430377   -1.012937
H     -3.268444    0.208058   -2.249420
H      0.076811    0.652491   -2.248649
H     -1.183174    2.309602   -2.539010
H      1.481052    1.911822   -0.980453
H      0.458590    2.025750    0.461774
H      3.454627    0.567600   -2.126489
H      3.484934   -2.092881   -0.839568
H      3.673158   -1.622536    0.899819
H      1.501773   -2.237143    1.365253
H      1.521840   -3.113774   -0.241382
H      6.500146    2.572898   -0.884094
H      6.220552    1.747988    0.659010
H      5.311375    3.255357    0.358040
H      1.988119    1.240191    1.963454
H      2.373543   -0.524769    2.036710
H      0.721653    0.064336    2.285961
