43

C      4.521378    1.460437   -0.377271
N      3.926507    0.156868   -0.548302
C      4.700665   -0.845023   -1.259326
C      2.632529   -0.126188   -0.037178
O      2.161536   -1.270723   -0.211521
C      1.891455    0.919093    0.673344
O      0.659383    0.585316    1.157919
C     -0.270480    0.160845    0.243803
C     -1.389183    1.143276    0.075292
C     -1.008751    2.312309    0.709810
C     -1.865011    3.386703    0.707050
C     -3.093406    3.268760    0.064973
C     -3.433992    2.091201   -0.553312
C     -2.569798    0.975180   -0.562746
C     -3.163752   -0.141569   -1.278255
C     -2.437686   -1.430128   -1.310509
C     -1.771606   -1.841163   -0.076951
C     -2.212258   -3.059315    0.374463
C     -1.705138   -3.634379    1.544700
C     -0.739419   -2.945115    2.248080
C     -0.298732   -1.698948    1.772599
C     -0.801511   -1.153385    0.633229
H      5.351634    1.618461   -1.095225
H      3.799072    2.282913   -0.550938
H      4.960075    1.486903    0.638864
H      4.166277   -1.807285   -1.346844
H      5.031060   -0.448662   -2.230473
H      5.626438   -1.012173   -0.643250
H      1.865134    1.804565   -0.021725
H      2.489378    1.281885    1.564858
H      0.268129    0.150397   -0.748098
H     -0.066197    2.438500    1.219151
H     -1.633351    4.316732    1.177248
H     -3.782586    4.106244    0.052242
H     -4.385139    1.979234   -1.058363
H     -3.277321    0.186947   -2.359358
H     -4.241259   -0.285940   -0.957121
H     -1.760073   -1.450630   -2.197789
H     -3.210938   -2.217841   -1.559839
H     -2.975697   -3.615473   -0.171953
H     -2.079766   -4.599459    1.868159
H     -0.331563   -3.370630    3.157778
H      0.453962   -1.158740    2.318259
