51

C     -0.809992    3.488174    0.729289
C      0.272827    2.675734    0.517834
C      0.508388    1.197699    0.655708
N      1.836070    0.938455    0.190971
C      2.495196   -0.312707    0.015569
C      2.087415   -1.275106   -0.882147
C      2.768244   -2.465333   -1.036075
C      3.901749   -2.731596   -0.280103
C      4.295436   -1.758659    0.611715
N      3.613054   -0.608468    0.741787
N      5.408533   -2.014910    1.343134
C      6.120543   -3.151515    1.231357
Cl     7.566280   -3.462570    2.188022
C      5.745945   -4.152981    0.336369
C      4.613679   -3.912116   -0.418205
C      2.436587    2.196932   -0.093508
O      3.611810    2.391750   -0.461295
C      1.459465    3.276119    0.108836
C      1.559965    4.635571   -0.079014
C      0.467267    5.423063    0.139416
C     -0.723118    4.870365    0.541737
C     -0.576879    0.436315    0.004754
C     -1.903920    0.668073    0.622407
C     -3.070499    0.868539   -0.264019
C     -3.629356   -0.446892   -0.763382
C     -4.082602   -1.348836    0.369042
C     -4.615869   -2.618904   -0.251292
C     -5.110359   -0.619605    1.195202
O     -2.057534    0.698628    1.839087
H     -1.794737    3.115011    1.048307
H      0.436335    1.030970    1.783725
H      1.221099   -1.126875   -1.511999
H      2.422573   -3.190920   -1.750079
H      6.330888   -5.083525    0.243362
H      4.262243   -4.644150   -1.132192
H      2.531883    5.059425   -0.402090
H      0.588433    6.498094   -0.016643
H     -1.566523    5.519660    0.706174
H     -0.631503    0.620472   -1.096493
H     -0.433318   -0.676809    0.073801
H     -2.774911    1.482984   -1.135474
H     -3.891358    1.377838    0.284505
H     -2.858186   -0.977104   -1.343141
H     -4.509147   -0.264910   -1.408825
H     -3.165699   -1.546814    0.992541
H     -5.733524   -2.651242   -0.155862
H     -4.365007   -2.740762   -1.311433
H     -4.162732   -3.477529    0.294416
H     -5.537715    0.227634    0.609820
H     -5.925634   -1.264530    1.552635
H     -4.631784   -0.172137    2.106789
