42

C      0.725517   -1.912453    1.920217
N      1.800679   -1.260228    1.459306
C      1.420137   -0.280174    0.590327
C      0.046629   -0.374787    0.549589
N     -0.379387   -1.372849    1.362634
C     -1.679895   -1.671814    1.502301
C     -2.600876   -0.941697    0.798583
C     -3.945649   -1.227088    0.918660
C     -4.367438   -2.252844    1.751782
C     -3.449112   -2.990209    2.461658
C     -2.111864   -2.687159    2.325627
N     -2.228396    0.073616   -0.033156
C     -0.912190    0.326808   -0.132928
O     -0.526484    1.248175   -0.884914
C     -3.243662    0.808569   -0.742452
C     -2.750669    2.130767   -1.313192
C     -3.936731    0.027396   -1.814751
C      2.306990    0.637935   -0.113850
N      2.065816    1.626483   -0.977727
O      3.173113    2.177741   -1.349752
C      4.196980    1.595439   -0.762978
N      3.662423    0.632785    0.010293
C      5.656072    1.929520   -0.918806
C      6.609315    1.487907    0.104084
C      6.577376    0.717551   -1.158444
H      0.677371   -2.741889    2.622936
H     -4.720793   -0.691620    0.388929
H     -5.427622   -2.461730    1.832917
H     -3.761394   -3.805070    3.125623
H     -1.364452   -3.245332    2.867667
H     -4.037980    1.124063    0.000135
H     -2.240064    1.929450   -2.262315
H     -3.680890    2.708473   -1.619818
H     -2.230374    2.761361   -0.594055
H     -5.037159    0.169530   -1.828925
H     -3.722655   -1.062494   -1.784439
H     -3.584072    0.384337   -2.826277
H      5.857953    2.762391   -1.610716
H      6.178380    1.005270    1.007121
H      7.507369    2.155704    0.256918
H      7.410901    0.830465   -1.859780
H      6.066786   -0.272302   -1.209887
