62

C      0.810728    0.875736    0.285135
C      0.221202   -0.423555    0.789069
C     -1.261908   -0.337613    0.989365
C     -1.849340   -0.041316   -0.372916
C     -3.346776   -0.006864   -0.273339
C     -3.742909   -1.384430    0.112279
C     -4.590522   -2.087925   -0.602774
C     -5.190343   -1.561112   -1.814601
O     -6.003192   -2.250899   -2.489184
C     -4.840064   -0.219798   -2.243624
C     -3.984783    0.463335   -1.503148
C     -3.165287   -1.985103    1.321504
C     -1.771186   -1.591357    1.614194
F     -3.321103   -3.368909    1.251982
C     -3.831256    0.887657    0.848382
C     -1.254972    1.129931   -1.048600
C      0.233440    1.125300   -1.072948
O     -1.678316    2.363289   -0.588266
C      1.025093   -0.641996    2.021939
C      2.439355   -0.371645    1.505308
C      2.285909    0.516912    0.274122
C      3.149155    1.711600    0.373160
C      4.114818    2.170403   -0.635549
O      4.433481    1.275589   -1.664505
C      5.118976    0.091221   -1.519272
C      5.403268   -0.804381   -2.668251
O      5.515000   -0.238144   -0.374292
O      3.093598    2.441703    1.383315
O      2.516437   -0.133440   -0.911250
C      3.041325   -1.686961    1.107726
C      0.582252    2.013259    1.220175
H      0.414564   -1.224040    0.081318
H     -1.578298    0.503370    1.651488
H     -1.603528   -0.946640   -1.003859
H     -4.874487   -3.116346   -0.296248
H     -5.274720    0.215357   -3.159584
H     -3.741899    1.456153   -1.845176
H     -3.822714   -1.678879    2.188109
H     -1.634732   -1.575273    2.719715
H     -1.098312   -2.428489    1.262589
H     -3.194245    1.739633    1.064468
H     -3.944540    0.316296    1.795864
H     -4.840629    1.270051    0.592018
H     -1.589017    1.086283   -2.128898
H      0.555113    2.169343   -1.363685
H      0.664743    0.451640   -1.815323
H     -1.778702    3.033747   -1.308526
H      0.759905   -0.036022    2.884834
H      0.995168   -1.708318    2.375256
H      3.048878    0.136240    2.284060
H      5.038066    2.551619   -0.125231
H      3.689261    3.096835   -1.112635
H      4.639677   -1.599524   -2.781968
H      5.534712   -0.251004   -3.610233
H      6.387124   -1.302158   -2.466196
H      1.978677   -0.901241   -1.127245
H      2.360462   -2.538024    1.408076
H      3.318131   -1.793978    0.062640
H      3.948166   -1.849025    1.751963
H      0.953423    2.937066    0.759581
H     -0.500245    2.200575    1.423849
H      1.037919    1.854264    2.191602
