44

C     -1.572126    0.087292   -0.983268
C     -1.085701   -1.335551   -0.788379
C     -0.556550   -1.602241    0.562222
O      0.479152   -0.941659    1.076015
C      1.772083   -0.673672    0.957997
C      2.647486   -1.148890    0.017819
C      3.967617   -0.766916    0.033571
C      4.467408    0.097440    0.979846
C      3.603381    0.581091    1.927999
C      2.303772    0.202264    1.908333
O      4.325989    1.435900    2.780697
C      5.530464    1.729642    2.096230
O      5.739936    0.638936    1.221591
C     -0.260459   -1.710003   -1.959806
N     -1.018359   -1.636965   -3.186026
C     -1.676246   -0.369678   -3.367652
C     -2.528471    0.018544   -2.181051
C     -2.234849    0.652424    0.194111
C     -3.343474    0.041687    0.715109
C     -3.951020    0.584100    1.817018
C     -3.445320    1.725844    2.382772
C     -2.328944    2.345093    1.862081
C     -1.712427    1.800398    0.749230
F     -4.037988    2.284946    3.485589
H     -0.697282    0.676601   -1.316948
H     -2.040512   -1.956792   -0.874800
H     -0.416562   -2.732001    0.719671
H     -1.444978   -1.424066    1.268726
H      2.287518   -1.845396   -0.735409
H      4.662887   -1.155341   -0.728422
H      1.653715    0.621611    2.694694
H      5.401284    2.681572    1.543770
H      6.365383    1.762967    2.825395
H      0.090416   -2.751306   -1.851451
H      0.590240   -0.981912   -2.117801
H     -0.556869   -2.002665   -4.014005
H     -2.363577   -0.498423   -4.252297
H     -0.971375    0.453741   -3.629684
H     -2.936011    1.029127   -2.402865
H     -3.314824   -0.724522   -2.028009
H     -3.761071   -0.869520    0.277346
H     -4.834219    0.147673    2.278724
H     -1.966290    3.239941    2.338613
H     -0.833227    2.288683    0.339696
