57

C     -0.908043    0.240025   -3.966132
C     -0.963676   -0.634016   -5.060849
C     -1.545200   -1.878422   -4.977221
C     -2.084191   -2.244114   -3.768908
C     -2.031612   -1.374348   -2.677960
C     -1.450618   -0.149986   -2.752632
C     -1.382948    0.504132   -1.422266
N     -2.474882   -0.170607   -0.684997
C     -2.685444   -1.432283   -1.371029
O     -3.315648   -2.417615   -0.943485
C     -3.225684    0.217435    0.444328
N     -4.547677    0.547603    0.313168
C     -5.330484    0.888639    1.336737
C     -4.864481    0.938217    2.634575
C     -3.528729    0.611517    2.805296
C     -2.726489    0.258758    1.736755
C     -5.671119    1.274753    3.702697
C     -6.997265    1.577614    3.507851
C     -7.445706    1.519258    2.189535
N     -6.651563    1.191784    1.158438
Cl    -9.154347    1.911550    1.966579
C     -0.121999    0.138517   -0.671593
C      1.162427    0.424558   -1.247050
O      1.337906    0.933382   -2.358362
N      2.340179    0.104208   -0.497292
C      2.251814   -0.447374    0.837971
C      3.482909   -1.137117    1.312501
C      4.711381   -0.324719    1.085091
O      5.724551   -1.172831    0.657471
C      6.899695   -0.603029    1.146952
C      6.458414    0.602437    1.950373
O      5.142629    0.293238    2.257988
C      4.560469    0.768064    0.055358
C      3.660267    0.301319   -1.064069
H     -0.472443    1.216033   -4.106798
H     -0.524318   -0.285062   -5.987747
H     -1.587395   -2.564914   -5.828372
H     -2.543324   -3.218932   -3.690423
H     -1.590097    1.565989   -1.441399
H     -3.102248    0.634561    3.806023
H     -1.704237    0.012327    1.967546
H     -5.219361    1.287746    4.679158
H     -7.663157    1.846782    4.335013
H     -0.132529   -0.976942   -0.444632
H     -0.213848    0.681020    0.324807
H      1.402280   -1.191234    0.810683
H      1.920416    0.327097    1.565285
H      3.559837   -2.184573    0.951485
H      3.359804   -1.244199    2.429833
H      7.400150   -1.366290    1.757334
H      7.489645   -0.266061    0.281386
H      6.523724    1.538857    1.367180
H      7.113966    0.672105    2.846202
H      4.123307    1.693906    0.479415
H      5.568961    0.991326   -0.356270
H      4.017427   -0.664042   -1.517215
H      3.648602    1.100867   -1.864312
