55

C     -0.783987    0.273912   -0.673200
C     -0.278135   -0.805485    0.255752
C     -1.480662   -1.734663    0.510449
C     -2.548613   -1.079686    1.300290
C     -2.722080    0.346029    0.975482
C     -1.900561    0.926737    0.077852
C     -1.937884    2.233125   -0.308037
C     -2.909230    3.032789    0.275579
C     -3.777086    2.492411    1.199754
C     -3.689980    1.143496    1.556502
O     -2.976169    4.364236   -0.092568
O     -0.931704    2.435776   -1.241059
C      0.092352    1.473669   -0.838955
C      0.542269    1.928146    0.484155
O      1.073635    3.046528    0.618118
C      0.371654    1.079076    1.652667
C     -0.004490   -0.188636    1.591025
N     -1.882632   -2.276162   -0.739872
C     -2.678549   -3.470287   -0.649910
C     -2.428733   -1.280139   -1.639359
C     -1.321491   -0.277155   -1.933063
N      0.709087   -1.582346   -0.315274
C      2.004122   -1.187348   -0.624125
C      2.952775   -1.038595    0.537212
C      4.283100   -0.529199    0.044893
C      4.243432    0.844282   -0.553036
C      5.662265    1.249324   -0.985993
H     -1.067003   -2.570487    1.128204
H     -3.505390   -1.616311    1.130091
H     -2.272983   -1.150142    2.391765
H     -4.524534    3.132603    1.644192
H     -4.350807    0.700597    2.275570
H     -2.334078    4.753044   -0.774250
H      0.848149    1.427485   -1.621567
H      0.574483    1.539428    2.634446
H     -0.099306   -0.734022    2.507334
H     -3.220745   -3.599152   -1.617477
H     -1.954676   -4.332050   -0.576745
H     -3.315071   -3.543003    0.233072
H     -3.345510   -0.820930   -1.246209
H     -2.677198   -1.802149   -2.577993
H     -0.588587   -0.730624   -2.613411
H     -1.825856    0.574675   -2.477831
H      0.446573   -2.490848   -0.726510
H      2.467226   -2.064634   -1.219444
H      2.167167   -0.347285   -1.296903
H      2.646711   -0.390369    1.344191
H      3.122793   -2.073263    0.969643
H      5.032071   -0.619694    0.851003
H      4.689653   -1.199603   -0.776019
H      3.528369    1.026009   -1.339905
H      4.001032    1.556817    0.280965
H      5.768380    0.904327   -2.021565
H      5.740604    2.350868   -0.900486
H      6.365827    0.698878   -0.356827
