41

C     -2.720924    1.938825   -0.012569
C     -1.482767    1.351183   -0.004977
C     -1.289901   -0.010645    0.041195
N     -0.020688   -0.525220    0.028310
C      1.067066    0.252348   -0.026680
C      0.869012    1.610249   -0.070619
C     -0.372511    2.187252   -0.061458
C     -0.534666    3.573426   -0.121572
C     -1.773104    4.172521   -0.128542
C     -2.858234    3.328377   -0.073114
N      2.386040   -0.233906   -0.042008
C      3.552042    0.618113   -0.100790
C      4.794464   -0.171998    0.238661
N      4.930870   -1.263075   -0.665644
C      3.727951   -1.966825   -0.968958
C      2.597565   -1.664904    0.003172
C     -2.434972   -0.910068    0.094842
C     -2.546167   -1.949710   -0.837115
C     -3.590207   -2.847524   -0.805915
C     -4.571967   -2.756784    0.149781
C     -4.487961   -1.744093    1.079727
C     -3.434954   -0.850846    1.036734
H     -3.606635    1.339093    0.010538
H      1.719675    2.301180   -0.115883
H      0.352694    4.191348   -0.163984
H     -1.901782    5.244203   -0.174645
H     -3.854259    3.780094   -0.077610
H      3.662166    1.028783   -1.112005
H      3.420373    1.463262    0.636460
H      5.661198    0.525258    0.059426
H      4.748816   -0.441102    1.296903
H      5.741093   -1.871064   -0.489099
H      3.365236   -1.582702   -1.965649
H      3.880031   -3.061944   -1.020164
H      2.873496   -1.934647    1.024373
H      1.691083   -2.183334   -0.373984
H     -1.809026   -2.075924   -1.612210
H     -3.679480   -3.653686   -1.525894
H     -5.402935   -3.459284    0.186043
H     -5.255532   -1.671297    1.828780
H     -3.412200   -0.074933    1.817892
