49

C      0.221645   -0.894262    1.288202
C     -0.283770   -0.624008   -0.133771
C     -0.959525   -1.882956   -0.618572
O     -1.505048   -1.921409   -1.832464
C     -2.601376   -1.220846   -2.178091
C     -3.721228   -2.138742   -2.719960
Cl    -3.077577   -2.971468   -4.149548
Cl    -4.235582   -3.292786   -1.470830
Cl    -5.138095   -1.166605   -3.165841
O     -2.307142   -0.387615   -3.289939
C      0.789251   -0.167068   -1.065575
O      1.836858   -1.041950   -1.244309
C      2.734040   -0.512640   -2.148828
C      4.108544   -0.242154   -1.564291
Cl     4.868661   -1.710979   -0.933457
Cl     5.183406    0.339752   -2.888893
Cl     4.068931    1.078102   -0.373582
O      2.901126   -1.293983   -3.281428
C     -1.256607    0.514094    0.000014
O     -0.599821    1.628681    0.580418
C     -1.522606    2.655258    0.682971
C     -1.774549    3.060192    2.137594
Cl    -2.396889    1.712298    3.086095
Cl    -2.959257    4.392990    2.092224
Cl    -0.294650    3.704215    2.883707
O     -1.122730    3.815432    0.021226
O      0.862416    0.182898    1.849300
C      1.262489   -0.122173    3.122543
C      2.745878    0.014093    3.375094
Cl     3.334554    1.649638    3.096512
Cl     3.090971   -0.369261    5.099537
Cl     3.692391   -1.145025    2.418384
O      0.641346    0.717186    4.076846
H      0.863846   -1.802853    1.223413
H     -0.643058   -1.145347    1.935201
H     -0.170644   -2.709295   -0.541594
H     -1.710820   -2.211857    0.184364
H     -3.103179   -0.620635   -1.403974
H     -3.104753    0.149365   -3.531490
H      1.120815    0.839191   -0.727932
H      0.304918    0.000731   -2.054328
H      2.374506    0.486431   -2.505476
H      2.027280   -1.702241   -3.496692
H     -2.081163    0.219473    0.622091
H     -1.498515    0.873331   -1.029297
H     -2.516057    2.347222    0.290263
H     -0.123373    3.757044   -0.058045
H      0.958976   -1.161204    3.364466
H      0.715165    0.321746    4.977744
