51

C      4.283503   -0.151122   -0.174760
C      5.247088    0.510824    0.593423
C      4.800096    1.563297    1.325473
C      3.486042    1.965929    1.322820
C      2.525946    1.308539    0.559481
C      2.964342    0.243147   -0.185163
C      2.005662   -0.523339   -1.044880
C      2.757636   -1.038344   -2.272382
C      0.930851    0.430964   -1.432592
C      0.025395   -0.034469   -2.525229
C      0.229163    0.869672   -0.192948
C      1.126923    1.785302    0.590951
N     -0.284408   -0.143422    0.631428
C      0.340085   -1.396516    0.654954
C      1.478135   -1.645959   -0.240771
C     -1.717918   -0.291254    0.530096
C     -2.510536    0.845288    1.087806
C     -3.934334    0.516254    0.892550
C     -4.608593    0.868903   -0.245655
C     -5.946657    0.562426   -0.439922
C     -6.612365   -0.117866    0.546691
C     -5.967512   -0.489120    1.705877
C     -4.615861   -0.164636    1.871755
O      6.561281    0.066976    0.562997
H      4.558348   -0.996453   -0.784513
H      5.552122    2.086968    1.929825
H      3.220610    2.804485    1.926454
H      3.564101   -0.322361   -2.519478
H      3.207344   -2.013282   -2.063864
H      2.071958   -1.138770   -3.144865
H      1.461023    1.347808   -1.831505
H      0.493078    0.178097   -3.526935
H     -0.066701   -1.140526   -2.450635
H     -0.967624    0.459290   -2.452711
H     -0.643497    1.513385   -0.535744
H      1.053835    2.839441    0.207564
H      0.786902    1.732861    1.653424
H     -0.439321   -2.206223    0.525618
H      0.682675   -1.574605    1.721788
H      2.360905   -2.088279    0.315084
H      1.218499   -2.477847   -0.963925
H     -2.055984   -1.220047    1.073350
H     -2.048139   -0.461447   -0.521096
H     -2.318784    1.796175    0.548391
H     -2.262851    0.958905    2.171297
H     -4.079642    1.399329   -1.007574
H     -6.480468    0.835238   -1.329037
H     -7.671781   -0.368886    0.407200
H     -6.463645   -1.022457    2.499676
H     -4.133161   -0.465749    2.786229
H      6.836234   -0.636324    1.243979
