29

C     -1.277631   -0.519778   -0.942773
C     -2.225022   -1.526100   -1.088519
C     -2.854426   -2.056494   -0.007493
C     -2.544404   -1.587100    1.234491
C     -1.618434   -0.603906    1.373307
C     -0.935535   -0.016556    0.301197
C      0.068492    1.057668    0.496704
C      1.414548    0.685927    0.009250
N      2.094576   -0.436250    0.555312
C      3.389592   -0.850784    0.134665
N      4.040297   -1.969265    0.695130
O      3.921793   -0.141161   -0.784417
O      2.036194    1.308290   -0.889117
C     -0.400165    2.388491   -0.007831
C     -0.729170    2.468257   -1.450026
H     -0.794795   -0.120088   -1.814677
H     -2.465751   -1.893597   -2.078729
H     -3.591610   -2.845681   -0.173382
H     -3.063362   -2.029314    2.084531
H     -1.357216   -0.216075    2.354319
H      0.159536    1.193962    1.616821
H      1.657902   -1.031458    1.320377
H      3.968943   -2.886602    0.206732
H      4.595718   -1.940056    1.577461
H      0.302029    3.202428    0.261429
H     -1.343542    2.624817    0.561776
H      0.074199    2.089061   -2.119651
H     -0.787766    3.570813   -1.702490
H     -1.734989    2.080552   -1.724396
