25

C     -1.610504   -0.252975    0.802671
C     -2.978278   -0.167992    1.007209
C     -3.835937    0.207609   -0.006615
C     -3.276271    0.495659   -1.234206
C     -1.904064    0.409913   -1.437679
C     -1.052844    0.033287   -0.417828
C      0.404701   -0.055310   -0.642699
C      1.175604    0.794178    0.299301
N      2.493724    0.219639    0.424916
C      3.710101    0.873271    0.866980
C      2.370199   -1.139011    0.023993
C      0.958926   -1.423592   -0.342214
O      3.307137   -1.974629   -0.016239
O      0.844246    1.829728    0.920571
H     -0.935013   -0.553534    1.617982
H     -3.424332   -0.393949    1.972785
H     -4.911207    0.280242    0.133513
H     -3.928782    0.795218   -2.054451
H     -1.464274    0.637856   -2.407935
H      0.644743    0.214237   -1.686831
H      3.957530    0.605148    1.929333
H      3.669604    1.957463    0.800881
H      4.513586    0.531542    0.172641
H      0.376863   -1.832797    0.510219
H      0.894541   -2.091201   -1.236295
