31

C     -2.079192   -1.083832   -0.182922
C     -3.370025   -0.811179   -0.605428
C     -3.737601    0.507240   -0.700175
C     -2.855036    1.512686   -0.386743
C     -1.553183    1.222239    0.039059
C     -1.181687   -0.094998    0.135065
C      0.165733   -0.441717    0.571694
C      1.229842    0.150380   -0.270706
C      2.215406    0.896396    0.329541
C      3.244407    1.482496   -0.416618
C      3.285478    1.318066   -1.782137
C      2.291315    0.567377   -2.372997
C      1.286526   -0.003175   -1.632936
N      0.313048   -0.029135    1.952269
C      0.301666   -1.155275    2.828260
O      0.288559   -1.133967    4.084837
N      0.307853   -2.297630    2.019782
C      0.323056   -1.912922    0.670119
O      0.451646   -2.697065   -0.311322
H     -1.779258   -2.117966   -0.102573
H     -4.088273   -1.577631   -0.859419
H     -4.758270    0.737614   -1.033925
H     -3.190701    2.541195   -0.476917
H     -0.930574    2.055612    0.262567
H      2.220419    1.048758    1.411095
H      3.996999    2.060532    0.099270
H      4.079674    1.765397   -2.391907
H      2.322745    0.437631   -3.446980
H      0.487238   -0.603268   -2.082560
H      0.410245    0.943020    2.281080
H      0.301946   -3.286880    2.371631
