33

C     -3.535286    0.369378   -0.436670
C     -2.114593    0.060320   -0.487906
O     -1.181722    0.931319    0.033909
C      0.187369    0.657200   -0.003204
C      0.829301   -0.021237    1.009778
C      2.206324   -0.261212    0.905500
C      2.956761    0.147001   -0.161248
N      4.348211   -0.059168   -0.334454
C      5.211920   -0.716008    0.551937
C      6.671262   -0.852948    0.221209
O      4.800787   -1.192521    1.613171
C      2.253970    0.831176   -1.160499
C      0.911110    1.087096   -1.099841
O     -1.718675   -1.004602   -1.008435
N     -4.373242   -0.653504   -1.029778
C     -5.671888   -0.455837   -0.446136
O     -6.777426   -0.919541   -0.827353
C     -5.547420    0.428228    0.752563
C     -4.055922    0.358539    1.006618
H     -3.811823    1.325033   -0.925771
H      0.277564   -0.364324    1.874572
H      2.652129   -0.792688    1.721915
H      4.819566    0.311982   -1.221942
H      7.297149   -0.444440    1.032222
H      6.933167   -1.909748   -0.001902
H      6.912467   -0.275869   -0.689177
H      2.794837    1.169462   -2.011925
H      0.389597    1.616916   -1.882795
H     -4.173202   -1.391641   -1.716200
H     -5.843093    1.442347    0.443236
H     -6.138790    0.044147    1.605463
H     -3.667872    1.183039    1.597739
H     -3.842538   -0.647892    1.402715
