40

C      1.282177    0.290338    0.710061
C     -0.119550    0.730375    0.906950
C     -1.207432   -0.196192    0.586149
C     -0.913698   -1.523771    0.295800
C      0.484490   -2.020345    0.293020
C      1.349104   -0.899145   -0.231914
C      2.781446   -1.311549   -0.316473
C      3.678410   -0.204757   -0.752943
N      3.416038    1.067128   -0.227720
C      2.077380    1.390883    0.090836
C      4.415002    1.667596    0.594043
N     -2.088491   -2.126418    0.055447
C     -3.117518   -1.259491    0.175827
C     -2.579334   -0.027228    0.512058
C     -3.356895    1.231145    0.730462
C     -3.270011    2.143010   -0.487606
C     -4.547641   -1.578609   -0.015231
O     -0.353878    1.883330    1.342942
H      1.723558   -0.051167    1.673539
H      0.792614   -2.360066    1.290821
H      0.618720   -2.872581   -0.397987
H      0.968567   -0.644751   -1.257052
H      3.099130   -1.669900    0.684230
H      2.884284   -2.182486   -1.007272
H      4.719998   -0.493759   -0.485712
H      3.646555   -0.167764   -1.870678
H      1.515071    1.820682   -0.766199
H      2.110129    2.219700    0.860365
H      4.810857    0.934658    1.305518
H      5.236798    2.059785   -0.058528
H      3.961104    2.530890    1.136964
H     -2.165273   -3.143705   -0.191286
H     -4.396942    0.956109    0.935695
H     -2.957441    1.801679    1.590748
H     -4.227053    2.012430   -1.056560
H     -2.424489    1.812782   -1.119304
H     -3.132314    3.196989   -0.189850
H     -4.673299   -2.669819    0.115955
H     -4.910171   -1.288781   -1.020324
H     -5.130003   -1.057224    0.787585
