42

C     -2.767764    1.717119   -0.042000
C     -3.997414    2.221142   -0.403118
C     -4.978857    1.331093   -0.767513
C     -4.710158   -0.040162   -0.764020
C     -3.443846   -0.497360   -0.389325
C     -2.447354    0.377509   -0.020850
C     -1.247059   -0.390369    0.309773
C     -1.445361   -1.677089    0.168610
C     -2.880175   -1.841241   -0.292053
C     -0.404848   -2.707476    0.420122
C      0.800827   -2.100851    1.032786
O      0.663410   -0.877288    1.604667
C      0.082049    0.082660    0.759754
C      1.041379    0.230157   -0.400329
C      2.355476    0.743195    0.145511
N      3.383476    0.882956   -0.900975
C      4.483134    1.587954   -0.189777
C      3.945900   -0.496114   -1.035679
C      0.065143    1.367730    1.535975
H     -2.007439    2.424563    0.241364
H     -4.194420    3.306908   -0.404385
H     -5.955272    1.688870   -1.053210
H     -5.458965   -0.754336   -1.043326
H     -3.436960   -2.501957    0.409742
H     -2.919769   -2.307652   -1.285114
H     -0.847501   -3.498010    1.093382
H     -0.134384   -3.210939   -0.542379
H      1.109946   -2.789480    1.893129
H      1.679999   -2.167441    0.342944
H      0.641997    0.944698   -1.163619
H      1.242590   -0.701804   -0.948196
H      2.218681    1.792003    0.536510
H      2.748126    0.066607    0.909509
H      4.115491    2.617124   -0.006559
H      4.618312    1.110096    0.798548
H      5.412671    1.546218   -0.766801
H      5.023759   -0.418170   -1.275888
H      3.873979   -0.999342   -0.029244
H      3.408257   -1.081309   -1.771106
H      0.266180    2.266171    0.921618
H      0.926416    1.359903    2.278889
H     -0.829654    1.393713    2.150777
