66

C     -3.229025    3.069847   -0.753945
C     -4.062936    4.080151   -1.238782
C     -5.293263    3.773796   -1.766317
C     -5.663096    2.450694   -1.796781
C     -4.849553    1.447158   -1.322085
C     -3.599855    1.750444   -0.785152
C     -2.748840    0.650310   -0.274238
C     -3.631545   -0.516760    0.064751
C     -3.473506   -1.725115   -0.572717
C     -4.291723   -2.806241   -0.258490
C     -5.279442   -2.679963    0.702686
C     -5.441773   -1.471780    1.343758
C     -4.621289   -0.407571    1.020683
C     -2.095910    1.076733    1.003263
C     -1.217028   -0.012429    1.589268
N     -0.186100   -0.322054    0.664035
C      0.791600    0.686446    0.477541
C      2.133911    0.352150    1.095939
C      2.706530   -0.928081    0.649747
N      3.880356   -0.867545   -0.179198
C      4.962671   -0.261928    0.518415
C      6.181423   -0.373396   -0.393336
C      6.043346    0.766887   -1.388382
C      4.584230    0.971106   -1.669802
C      3.743819   -0.284956   -1.464571
C      3.056281   -1.765605    1.826525
N      4.095907   -2.764944    1.746763
O      2.479693   -1.670009    2.959661
C      1.597821   -1.716785   -0.064321
C      0.374116   -1.641399    0.800133
C     -1.841984    0.282076   -1.327158
N     -1.104731   -0.002746   -2.196220
H     -2.267267    3.374509   -0.354149
H     -3.714615    5.079572   -1.185710
H     -5.970572    4.547091   -2.153741
H     -6.635184    2.179417   -2.211219
H     -5.143152    0.390958   -1.346020
H     -2.699420   -1.797854   -1.315742
H     -4.128680   -3.730872   -0.785371
H     -5.922331   -3.536954    0.947711
H     -6.208722   -1.373008    2.090984
H     -4.766757    0.528959    1.533792
H     -2.915699    1.341491    1.721712
H     -1.520167    2.014833    0.879770
H     -1.806970   -0.868712    1.934917
H     -0.745938    0.466466    2.497141
H      0.933958    0.983938   -0.567288
H      0.452502    1.605789    1.012542
H      1.970753    0.406632    2.208436
H      2.783498    1.214880    0.866605
H      5.193213   -0.798710    1.431352
H      4.718588    0.819892    0.696373
H      6.112217   -1.311390   -0.965902
H      7.086674   -0.276287    0.228132
H      6.612662    0.586977   -2.320544
H      6.475711    1.669417   -0.891786
H      4.483963    1.235899   -2.729850
H      4.234456    1.826793   -1.077810
H      4.162917   -1.032460   -2.204877
H      2.747123   -0.043914   -1.818478
H      4.395148   -3.150513    0.835897
H      4.564570   -3.116438    2.601545
H      1.906255   -2.778942   -0.189948
H      1.387421   -1.278127   -1.065382
H      0.574419   -1.891306    1.853173
H     -0.350682   -2.426520    0.450478
