37

N     -0.273819    1.206197    0.406471
C     -0.997983    0.084712    0.282395
C     -0.204676   -0.992773    0.094181
C      1.101103   -0.489582    0.104503
C      1.045954    0.889103    0.300843
C      2.193765    1.646603    0.354214
C      3.389764    0.960077    0.202380
C      3.475385   -0.389471    0.008728
C      2.306003   -1.127618   -0.040920
C      4.776279   -1.098010   -0.151060
C     -0.838277   -2.315110   -0.063301
C     -2.164514   -2.086468   -0.765520
C     -3.075134   -1.157786   -0.037137
C     -2.455767    0.152074    0.360099
N     -2.915743    1.255026   -0.435714
C     -2.161531    2.448349   -0.326522
C     -1.007572    2.436334    0.612441
H      0.000000    0.000000    0.000000
Cl     0.000000    0.000000    0.000000
H      2.123398    2.704962    0.506237
H      4.321009    1.515698    0.237391
H      2.322904   -2.196470   -0.191933
H      5.534338   -0.385722   -0.577203
H      4.708828   -1.921519   -0.892665
H      5.160875   -1.507042    0.784616
H     -0.960741   -2.754172    0.941514
H     -0.256232   -3.004719   -0.713129
H     -2.655504   -3.066398   -0.841769
H     -1.912246   -1.732726   -1.794524
H     -3.951162   -0.969727   -0.687574
H     -3.484679   -1.722852    0.847852
H     -2.818142    0.356471    1.411554
H     -3.940874    1.352942   -0.410779
H     -2.861015    3.261855    0.020090
H     -1.777530    2.807983   -1.320508
H     -0.368204    3.307045    0.420507
H     -1.378263    2.532734    1.653124
