113

C      6.650899    0.774199    1.586358
C      7.982482    0.830032    0.886593
C      7.955515   -0.137130   -0.241225
C      9.349380   -0.129512   -0.852481
C      9.447001    1.159950   -1.552812
C      9.713446    1.335966   -2.833370
C      9.938640    0.170604   -3.669501
O     10.197061    0.270963   -4.900083
C      9.849819   -1.121292   -3.010712
C      9.582412   -1.259096   -1.732939
C      9.209532    2.376699   -0.707020
C      8.169328    2.220187    0.336334
C     10.409064   -0.128840    0.244691
C      7.444600   -1.495909    0.033962
O      8.299094   -2.346224    0.685062
C      6.108941   -1.447795    0.746701
C      6.302763   -0.650494    1.984818
C      5.010807   -0.380267    2.753563
C      4.537099   -1.562798    3.453893
C      3.177129   -2.090747    3.371014
O      2.218646   -1.291369    2.779706
C      1.777785   -0.084009    3.216316
C      0.741466    0.714492    2.554390
O      0.122112    0.055159    1.519028
C      0.593908   -0.420063    0.334668
C     -0.316961   -1.108894   -0.612212
C     -1.061378   -0.024153   -1.345828
C     -2.072520   -0.541245   -2.341095
C     -3.106463   -1.419266   -1.652556
C     -3.816424   -0.701307   -0.561451
C     -4.585178    0.506688   -0.927269
C     -5.727122    0.276912   -1.896853
C     -6.373228    1.620684   -2.140829
C     -7.563033    1.564141   -3.064267
C     -8.637699    0.675977   -2.451404
C     -9.859365    0.619564   -3.330174
C    -10.893163   -0.266293   -2.693963
C    -11.295169    0.287703   -1.351507
C    -12.350303   -0.650625   -0.775721
C    -12.803895   -0.153722    0.588598
C    -13.845229   -1.117696    1.111024
C    -14.350088   -0.693312    2.476080
O      1.787977   -0.271251    0.052091
O      2.287582    0.404968    4.277061
O      5.307793   -2.226179    4.198256
O      4.130365    0.201434    1.881129
C      5.493899    0.743791    3.681213
C      6.659936    1.412622    2.953811
C      7.302662   -1.235244    2.928293
H      5.838970    1.202588    1.004533
H      8.787782    0.675297    1.634142
H      7.276256    0.309993   -1.028999
H      9.764168    2.337300   -3.265008
H     10.019522   -2.019652   -3.635353
H      9.551115   -2.303600   -1.390399
H      9.013405    3.238008   -1.393557
H     10.179892    2.614996   -0.226777
H      8.395598    2.955912    1.165091
H      7.209090    2.625276   -0.093820
H     10.568084    0.871445    0.681181
H     11.379812   -0.383417   -0.274575
H     10.194723   -0.832524    1.047111
H      7.203226   -1.963279   -0.968359
H      7.972075   -3.279967    0.574509
H      5.301010   -1.032271    0.142275
H      5.890866   -2.510985    1.042874
H      3.160820   -3.077442    2.790550
H      2.786673   -2.413215    4.379656
H      1.138628    1.727613    2.256064
H     -0.068623    0.966629    3.308838
H     -0.993085   -1.822300   -0.107705
H      0.308397   -1.707131   -1.304540
H     -0.310321    0.552114   -1.941877
H     -1.537117    0.696331   -0.658798
H     -2.584259    0.334199   -2.774018
H     -1.566251   -1.074329   -3.167702
H     -2.645979   -2.322605   -1.213415
H     -3.803587   -1.759822   -2.443181
H     -3.077535   -0.413086    0.218504
H     -4.523900   -1.426448   -0.097787
H     -5.057131    0.891974    0.015499
H     -3.943307    1.357434   -1.283502
H     -5.382297   -0.169329   -2.844430
H     -6.488018   -0.402159   -1.467212
H     -6.634763    2.133010   -1.192031
H     -5.636550    2.320815   -2.636023
H     -7.288681    1.174732   -4.048023
H     -7.958577    2.591324   -3.202946
H     -8.813095    1.030513   -1.433711
H     -8.244791   -0.370833   -2.405848
H     -9.525992    0.187366   -4.306185
H    -10.258063    1.652373   -3.517493
H    -11.776537   -0.413445   -3.352122
H    -10.398097   -1.272197   -2.559707
H    -11.744312    1.294478   -1.518783
H    -10.465826    0.396250   -0.631775
H    -13.254039   -0.659461   -1.418899
H    -11.926839   -1.659522   -0.661132
H    -11.945556   -0.158377    1.322963
H    -13.191226    0.886114    0.533489
H    -13.401320   -2.130468    1.133470
H    -14.706331   -1.058608    0.383541
H    -14.220860   -1.551545    3.159876
H    -13.731765    0.151042    2.876189
H    -15.410472   -0.446623    2.432131
H      4.056299    1.199348    1.980879
H      4.710543    1.527514    3.811792
H      5.762673    0.342274    4.656035
H      6.548200    2.501832    2.919947
H      7.601965    1.197745    3.491894
H      8.359307   -1.029751    2.641208
H      7.195836   -0.892018    3.974784
H      7.238243   -2.362932    2.897284
