71

C     -0.619283   -0.040658    0.068412
C     -1.661095    0.028966    1.201816
C     -2.923487    0.661920    0.736991
C     -3.543147   -0.368262   -0.220244
C     -4.936470    0.033467   -0.615569
C     -5.697455    0.557696    0.517949
C     -6.880840    0.110899    0.822581
C     -7.571052   -0.945531    0.090587
O     -8.700228   -1.366700    0.384312
C     -6.849518   -1.504355   -1.042366
C     -5.659188   -1.022044   -1.313123
C     -5.067923    1.618648    1.397380
C     -3.808352    0.921074    1.920981
C     -4.885536    1.199199   -1.634015
C     -2.624396   -0.607465   -1.368293
C     -1.204334   -0.863201   -1.024495
O     -2.703770    0.323323   -2.394397
C     -0.881269    0.797912    2.217676
C      0.480865    0.115436    2.119345
C      0.435720   -0.740781    0.871506
C      1.719692   -0.974708    0.251175
C      2.660599    0.020338   -0.263680
O      3.836846   -0.659591   -0.734234
C      4.898480    0.044913   -1.260313
C      6.132674   -0.623385   -1.759525
C      7.236506   -0.344152   -0.748075
C      6.752098   -0.937640    0.569920
C      7.458901    1.142893   -0.626302
C      8.544578   -0.976233   -1.126108
O      4.802846    1.295920   -1.312701
O      2.060645   -2.171016    0.148268
O     -0.166040   -1.956910    1.282920
C     -0.157493    1.321863   -0.305339
H     -1.870904   -0.973987    1.573066
H     -2.828761    1.592120    0.182696
H     -3.613808   -1.304812    0.366264
H     -7.438527    0.518396    1.673781
H     -7.289961   -2.290849   -1.634135
H     -5.166353   -1.509414   -2.200822
H     -4.766680    2.435460    0.730080
H     -5.676687    1.874055    2.253371
H     -3.289725    1.521793    2.663778
H     -4.179838   -0.059775    2.324999
H     -5.860827    1.737728   -1.501476
H     -4.932072    0.818973   -2.672000
H     -4.096210    1.908877   -1.411599
H     -2.998460   -1.568530   -1.849267
H     -1.017789   -1.953388   -0.827506
H     -0.597179   -0.654634   -1.954392
H     -2.074102    1.053713   -2.365889
H     -0.803140    1.877783    1.963609
H     -1.282339    0.698000    3.223667
H      1.295371    0.842898    2.129090
H      0.613344   -0.546494    3.009802
H      2.231010    0.484401   -1.194101
H      3.009001    0.764720    0.453040
H      6.417773   -0.192404   -2.727798
H      5.977195   -1.706307   -1.875017
H      5.781818   -0.494140    0.796736
H      6.622276   -2.019705    0.447581
H      7.542081   -0.751541    1.321550
H      6.779235    1.603184    0.109012
H      8.501746    1.347910   -0.242428
H      7.414376    1.638087   -1.617241
H      8.434785   -1.970805   -1.601105
H      9.118680   -0.314613   -1.820748
H      9.153541   -1.064252   -0.183847
H      0.488433   -2.543030    1.722792
H      0.745890    1.583259    0.308297
H      0.067232    1.400278   -1.377421
H     -0.889999    2.125209   -0.054824
