66

C      6.927723   -1.082092    0.320093
C      5.627287   -0.382372    0.388386
O      4.427614   -1.054854    0.301327
C      3.203777   -0.349761    0.370528
C      2.484424   -0.523459   -0.924288
C      0.988947   -0.424268   -0.806365
C      0.360590   -0.103436   -1.920145
C     -1.093752    0.048290   -2.038932
C     -1.855497   -0.011645   -0.778493
C     -2.834102    1.147115   -0.728446
C     -3.750265    0.925817    0.455159
C     -5.116478    0.913266   -0.110239
C     -4.966976    1.801160   -1.359336
C     -3.693083    1.235452   -1.958010
C     -5.750203   -0.349785   -0.417863
C     -6.124081   -1.354324    0.594003
O     -6.014259   -0.648487   -1.591910
C     -3.395489   -0.258827    1.278763
C     -1.918584   -0.319015    1.619761
C     -1.034828    0.105323    0.471025
C      0.252513   -0.660090    0.424972
C      1.084435   -0.132339    1.597100
C      2.406267   -0.830069    1.558923
C      0.088431   -2.141792    0.660805
C     -3.574460    2.169538    1.348973
O      5.563988    0.870523    0.528151
C      7.832251   -0.589863   -0.763504
C      8.185051    0.839455   -0.661394
O      9.351107    1.318364   -0.074795
O      7.391455    1.700305   -1.130767
H      7.451583   -0.911174    1.287923
H      6.794548   -2.175977    0.214914
H      3.419491    0.735276    0.512793
H      2.885946    0.259614   -1.627667
H      2.704549   -1.491107   -1.404845
H      0.927797    0.075744   -2.864773
H     -1.475817   -0.769111   -2.728685
H     -1.369297    0.981259   -2.608873
H     -2.414670   -0.991186   -0.720206
H     -2.225305    2.061184   -0.627968
H     -5.795013    1.508045    0.568557
H     -4.778555    2.812091   -1.006476
H     -5.844136    1.681983   -2.020536
H     -3.826479    0.298607   -2.494364
H     -3.259625    1.961928   -2.698462
H     -5.693274   -2.369334    0.344566
H     -5.954833   -1.060387    1.634844
H     -7.241933   -1.567510    0.551053
H     -3.911965   -0.112169    2.273806
H     -3.692854   -1.233260    0.906294
H     -1.720118    0.278381    2.532857
H     -1.689404   -1.387467    1.915794
H     -0.786060    1.174269    0.635060
H      1.298089    0.957745    1.420349
H      0.597627   -0.312801    2.559747
H      2.291067   -1.928745    1.567865
H      2.979415   -0.555420    2.466718
H      0.909125   -2.658028    0.078500
H      0.261863   -2.415712    1.725032
H     -0.868490   -2.537914    0.324197
H     -4.580763    2.529970    1.658122
H     -2.913218    1.927219    2.193222
H     -3.128932    3.004472    0.770148
H      7.318204   -0.765471   -1.738535
H      8.769665   -1.198283   -0.767910
H      9.507974    2.335140   -0.039857
