32

C     -1.558268    0.609455    1.738585
C     -0.956241   -0.291337    0.732277
C      0.451519   -0.029684    0.321331
C      0.982505   -1.015823   -0.699359
C      2.506838   -1.084108   -0.570941
C      2.995720    0.323993   -0.319380
C      2.061235    1.299060   -0.987243
C      0.690450    1.338524   -0.296267
O     -1.808944   -0.720315   -0.283355
C     -2.366834   -1.941841   -0.503295
N     -3.208436   -2.139926   -1.612171
O     -2.080360   -2.829225    0.325301
C     -1.695861    2.047725    1.485283
H     -0.992811    0.458976    2.707097
H     -2.596620    0.257449    2.050785
H     -0.870067   -1.272768    1.319031
H      1.177966   -0.080008    1.160823
H      0.819214   -0.658340   -1.737598
H      0.644134   -2.043253   -0.524317
H      2.694927   -1.653613    0.376592
H      2.979407   -1.576636   -1.417524
H      3.068294    0.559702    0.753299
H      3.979977    0.442514   -0.773473
H      2.531139    2.308063   -0.939169
H      1.939528    1.015990   -2.050851
H     -0.014746    1.563490   -1.108106
H      0.797189    2.102764    0.482837
H     -2.856080   -2.068376   -2.597847
H     -4.210804   -2.364596   -1.500037
H     -2.632522    2.467221    1.954775
H     -0.894615    2.570673    2.065121
H     -1.576834    2.404251    0.447797
