39

C      3.009182   -0.374987    0.522385
C      4.264250    0.227699    0.358751
C      4.560120    0.841347   -0.830584
C      3.648039    0.870053   -1.850327
C      2.415125    0.268658   -1.666887
C      2.076926   -0.357363   -0.491865
C      0.750421   -0.994666   -0.331488
C     -0.271732   -0.017489    0.264514
N     -1.493163   -0.685233    0.384909
C     -2.147850   -1.155853   -0.762569
C     -3.430315   -1.761817   -0.175915
C     -2.812553   -2.453353    1.048471
C     -1.790496   -1.419634    1.524745
C     -0.290249    1.184536   -0.619938
C     -1.258258    2.247908   -0.152851
C     -0.901501    2.741310    1.234116
H      2.719846   -0.872603    1.437424
H      4.961217    0.194969    1.166439
H      5.547076    1.302280   -0.925218
H      3.902807    1.365812   -2.795341
H      1.735956    0.321689   -2.505982
H      0.814294   -1.890039    0.356013
H      0.368097   -1.420289   -1.287676
H      0.099972    0.279908    1.264386
H     -2.444529   -0.420819   -1.507585
H     -1.584328   -2.000617   -1.204660
H     -3.902201   -2.463553   -0.860618
H     -4.099089   -0.957064    0.206673
H     -3.558428   -2.680479    1.811035
H     -2.304475   -3.362744    0.671606
H     -2.229735   -0.846162    2.355079
H     -0.884837   -2.009128    1.840688
H     -0.424567    0.954708   -1.695209
H      0.729549    1.664045   -0.539029
H     -1.182627    3.127283   -0.822205
H     -2.308344    1.868619   -0.154258
H     -0.864426    3.870014    1.275710
H      0.161444    2.430587    1.446433
H     -1.580624    2.382472    2.010825
