39

C      1.346971   -0.747597   -0.999675
C      2.712395   -0.865240   -1.212776
C      3.613699   -0.280198   -0.314383
C      3.084223    0.390155    0.746744
C      1.704156    0.511587    0.966614
C      0.832520   -0.067538    0.077446
O     -0.534482    0.014367    0.234461
C     -1.333902    0.990301   -0.314682
C     -2.765395    1.183074   -0.216488
N     -3.582911    0.193142    0.317952
C     -3.860971   -1.000659   -0.353554
C     -2.670896   -1.912542   -0.455476
C     -4.601408    0.644524    1.234948
C     -5.676084    1.463755    0.570301
O     -0.661617    1.847441   -1.014995
N      4.986251   -0.419977   -0.583580
C      6.053342   -0.075108    0.265415
C      7.489111   -0.287965   -0.184709
O      5.831829    0.404603    1.386494
H      0.640011   -1.203662   -1.699426
H      3.076019   -1.409550   -2.071214
H      3.716033    0.868505    1.471042
H      1.322846    1.049831    1.817904
H     -3.229174    1.524667   -1.187480
H     -2.901249    2.118261    0.434125
H     -4.695637   -1.566727    0.144913
H     -4.246970   -0.849580   -1.408443
H     -2.165526   -2.077273    0.516007
H     -3.051774   -2.950756   -0.721776
H     -1.969771   -1.659794   -1.257389
H     -5.079247   -0.249864    1.677746
H     -4.139050    1.265998    2.026685
H     -5.289654    2.275201   -0.060923
H     -6.407175    0.837075    0.004249
H     -6.256286    1.957876    1.402236
H      5.280631   -0.829055   -1.531833
H      7.764536   -1.289928    0.232874
H      8.103421    0.483667    0.281740
H      7.561184   -0.281015   -1.278197
