9

C      1.271872   -0.225725   -0.497217
C     -0.098537   -0.484417   -0.079160
C     -0.881459    0.618512    0.490814
H      1.635942   -1.060993   -1.143010
H      1.992690   -0.194902    0.361351
H     -0.606205   -1.366716   -0.405766
H     -1.587570    0.183003    1.254951
H     -1.515268    1.185109   -0.226040
H     -0.211464    1.346127    0.975549
