30

C      1.047187    0.083354   -0.711250
C     -0.265518   -0.016216   -0.053812
C     -0.478069   -1.276150    0.697990
N     -1.140236   -2.351638    0.053260
C     -1.867801   -2.238661   -1.147973
O     -2.445698   -3.225855   -1.691775
N     -1.943336   -0.959294   -1.755704
C     -1.300674    0.126447   -1.146991
O     -1.564260    1.305006   -1.494115
O     -0.084287   -1.405311    1.887227
C     -0.510865    1.145392    0.876543
C     -1.847936    1.036744    1.526576
C     -2.753492    1.979059    1.359411
C      2.275471    0.017431    0.103304
C      3.536950    0.128197   -0.783737
O      2.449305    0.976011    1.065051
H      1.044244    1.050790   -1.299102
H      1.088242   -0.711392   -1.514931
H     -1.087031   -3.314854    0.504602
H     -2.472687   -0.826511   -2.648485
H     -0.449120    2.095589    0.278315
H      0.292353    1.257343    1.654116
H     -2.059885    0.178111    2.132669
H     -3.736480    1.959384    1.801311
H     -2.515535    2.834021    0.744080
H      2.347714   -1.004956    0.555790
H      3.568193    1.195959   -1.097819
H      3.501750   -0.577965   -1.613282
H      4.383020   -0.030113   -0.084870
H      2.988479    0.570078    1.803600
