47

O     -4.709214   -1.724919    2.072066
C     -3.458743   -1.677341    1.470281
C     -2.685292   -2.813790    1.470235
C     -1.446392   -2.755379    0.870487
C     -0.997593   -1.563596    0.280147
C      0.327537   -1.504751   -0.355191
C      0.829620   -0.090602   -0.497826
C     -0.169640    0.788919   -1.180746
C     -0.516747    0.443486   -2.578806
C     -1.278751    1.660864   -3.128196
O     -1.966936    2.322135   -2.125553
C     -2.482252    1.481132   -1.140575
C     -1.390178    0.846361   -0.298887
C     -0.948848    1.732446    0.854408
C      0.433153    1.507377    1.287203
N      1.196580    0.436648    0.747752
C      2.601784    0.786207    0.766629
C      3.520045   -0.312979    0.305683
C      4.986689   -0.074787    0.279327
C      4.461882   -0.850483    1.438853
C     -1.780178   -0.438187    0.287644
C     -3.028261   -0.500631    0.892650
H     -5.075392   -2.556071    2.510801
H     -3.052253   -3.718440    1.929972
H     -0.802073   -3.644573    0.851385
H      1.076677   -2.135500    0.153990
H      0.238261   -1.953491   -1.386826
H      1.701633   -0.147825   -1.216501
H      0.263483    1.827367   -1.196736
H      0.389668    0.250252   -3.182507
H     -1.238994   -0.395796   -2.579025
H     -1.861194    1.430112   -4.016426
H     -0.469608    2.377885   -3.458861
H     -3.194037    2.052213   -0.535865
H     -3.014858    0.625505   -1.650829
H     -1.091676    2.787218    0.468052
H     -1.711754    1.620466    1.650522
H      0.411267    1.347667    2.409789
H      1.021320    2.443609    1.171603
H      2.845926    1.089785    1.808977
H      2.746437    1.707327    0.124000
H      3.156738   -1.133831   -0.342628
H      5.565762   -0.600996   -0.492038
H      5.306735    0.968773    0.422520
H      4.354250   -0.371655    2.430155
H      4.601123   -1.940181    1.493521
H     -3.665702    0.372050    0.915371
