24

C     -0.319612    0.737400    0.732761
C      0.442033   -0.081708   -0.073536
C      1.910895   -0.141449   -0.105703
C      2.689516    0.652159    0.704064
C      4.066627    0.612759    0.690565
N      4.668548   -0.237675   -0.150097
C      3.943088   -1.031084   -0.958661
C      2.545813   -1.005240   -0.959125
O     -0.405642   -0.774760   -0.783873
C     -1.666837   -0.456203   -0.488487
C     -1.659521    0.519794    0.489490
C     -2.855158    1.010631    0.958714
C     -4.073627    0.571337    0.495621
C     -4.056125   -0.411060   -0.488301
C     -2.876552   -0.913899   -0.969850
H      0.066230    1.443844    1.447814
H      2.181873    1.335627    1.379228
H      4.677631    1.242983    1.333472
H      4.455800   -1.693325   -1.612465
H      2.029169   -1.665329   -1.630191
H     -2.838008    1.769873    1.719715
H     -5.009277    0.963057    0.870440
H     -5.027228   -0.771557   -0.867779
H     -2.889635   -1.676175   -1.733817
