26

C      0.111005   -1.160570    0.078505
C     -0.986847   -0.233161    0.568078
C     -1.222199    0.672958   -0.512748
C     -0.348444    0.371253   -1.624442
C     -0.163863   -1.143190   -1.430368
C     -2.237869    1.599822   -0.169962
C     -2.917493    1.664241    0.959021
C     -2.662193    0.750641    1.997868
C     -1.643122   -0.198569    1.695861
N      1.370373   -0.588771    0.286521
C      2.224769   -1.002269    1.362295
C      3.502578   -0.156975    0.939156
C      4.509024    0.508572    0.593149
H     -0.013822   -2.195066    0.461602
H     -0.712558    0.629880   -2.632331
H      0.630352    0.914496   -1.446966
H      0.674515   -1.512937   -1.996390
H     -1.127862   -1.584136   -1.665371
H     -2.409357    2.311617   -1.002118
H     -3.678122    2.433889    1.123923
H     -3.218624    0.787185    2.879844
H     -1.490542   -0.868048    2.558480
H      1.912299   -0.397876   -0.580254
H      2.575687   -2.005936    1.266716
H      1.962825   -0.651137    2.349851
H      5.359491    1.054090    0.315551
