55

C     -2.751772   -2.257896    0.059916
C     -3.522390   -3.201980    0.753429
C     -4.515807   -2.714842    1.586909
C     -4.766182   -1.364140    1.753632
C     -3.972695   -0.453169    1.042049
C     -2.979519   -0.913947    0.207733
N     -2.167086    0.030729   -0.543822
C     -0.774009    0.066275   -0.352557
C     -0.019501   -0.454213   -1.528261
C      1.472627   -0.577705   -1.244551
N      1.999138    0.612360   -0.720496
C      3.391251    0.664168   -0.482356
C      3.890393   -0.227797    0.631899
C      5.362806   -0.032998    0.738355
O      6.060394    0.845816   -0.062331
C      7.450671    1.011154    0.060635
O      5.976122   -0.708462    1.602312
C      1.259110    1.389404    0.187069
C     -0.219061    1.495541   -0.159352
C     -0.405085   -0.594637    0.926933
O     -1.413233   -0.783796    1.857388
C     -1.232649   -1.383779    3.105844
O      0.725193   -0.994184    1.247832
C     -2.887604    0.808034   -1.470792
C     -2.465987    1.930445   -2.301011
C     -3.649492    2.391694   -3.211150
O     -4.143557    0.471968   -1.609779
H     -1.966015   -2.575176   -0.601861
H     -3.311662   -4.247783    0.609310
H     -5.096106   -3.464315    2.110836
H     -5.552795   -1.035041    2.415850
H     -4.179319    0.601765    1.180477
H     -0.080767    0.291956   -2.339018
H     -0.349540   -1.408575   -1.929426
H      1.925309   -0.701388   -2.282222
H      1.739937   -1.524105   -0.742686
H      3.992276    0.406198   -1.380509
H      3.732219    1.703985   -0.205231
H      3.738409   -1.287620    0.335477
H      3.475054    0.023916    1.621429
H      8.005035    0.418440   -0.690829
H      7.773062    0.711747    1.098968
H      7.761490    2.067323   -0.042349
H      1.627768    2.463236    0.062836
H      1.440015    1.151565    1.227771
H     -0.301056    2.008947   -1.111773
H     -0.733486    1.908177    0.702390
H     -1.693715   -2.408238    3.038359
H     -0.170031   -1.436467    3.428668
H     -1.789935   -0.776896    3.851614
H     -2.289729    2.878961   -1.700817
H     -1.662729    1.761758   -3.024013
H     -3.725461    1.628376   -3.983819
H     -3.428591    3.412941   -3.597964
H     -4.581716    2.372271   -2.602270
