52

C      0.214835    1.840524   -1.994939
C      0.672123    0.812593   -1.175348
N     -0.168637   -0.298283   -0.878928
C     -1.093220   -0.228879    0.093562
N     -1.720621   -1.392138    0.133049
C     -1.194438   -2.186858   -0.808246
N     -0.230326   -1.498289   -1.431606
C     -1.648396   -3.533224   -1.065672
N     -2.712214   -4.133132   -0.331524
C     -3.119609   -5.498767   -0.644463
C     -3.411276   -3.421333    0.714209
O     -1.098259   -4.203259   -1.960325
C     -1.433011    0.904634    1.007193
N     -2.493635    1.704711    0.461451
C     -3.014979    2.841896    1.129592
C     -4.115507    3.652210    0.533938
N     -4.432293    4.728362    1.420476
O     -2.522630    3.152031    2.243849
C      1.934728    0.846091   -0.630911
C      2.776917    1.931828   -0.904327
C      2.298947    2.938710   -1.720408
C      1.030353    2.917715   -2.274817
Cl     3.318567    4.319695   -2.089506
C      2.393212   -0.225872    0.222454
C      3.763200   -0.386829    0.664644
C      4.750255   -0.526843   -0.271378
C      6.059779   -0.666763    0.184101
C      6.374179   -0.667046    1.523969
C      5.373084   -0.524584    2.463123
C      4.074935   -0.386562    1.999007
Cl     4.402059   -0.538046   -2.002007
O      1.554947   -1.089380    0.619080
H     -0.782641    1.782625   -2.404951
H     -2.509907   -5.873335   -1.486723
H     -3.074511   -6.157714    0.245329
H     -4.205743   -5.506024   -0.945696
H     -4.274022   -4.040526    1.031360
H     -3.815274   -2.460705    0.310138
H     -2.793506   -3.286671    1.627960
H     -0.541072    1.534752    1.157256
H     -1.780228    0.522328    1.999613
H     -2.899328    1.427708   -0.482339
H     -5.008852    2.980274    0.443259
H     -3.855776    3.986682   -0.471028
H     -5.087786    5.428084    1.017668
H     -3.626922    5.134030    1.919251
H      3.772241    1.953134   -0.471075
H      0.710247    3.749050   -2.916124
H      6.836552   -0.778942   -0.585957
H      7.413622   -0.778005    1.863612
H      5.620431   -0.523645    3.515461
H      3.319401   -0.278011    2.786800
