61

C     -0.307198   -0.989491    0.249003
C     -1.139507    0.266746    0.024418
C     -2.469800   -0.240692    0.483837
C     -3.639915    0.504665   -0.056134
C     -3.907950    1.932023    0.238695
C     -5.175755    2.393263   -0.462291
O     -4.453515   -0.046127   -0.787610
C     -2.587156   -0.350160    1.994383
C     -2.534737   -1.650558   -0.081030
C     -1.110619   -2.085702   -0.310762
C     -3.289627   -2.586430    0.824107
C     -0.497372    1.283549    0.904839
C      0.961286    1.471665    0.637844
O      1.128248    2.380063   -0.410444
C      1.760336    0.223747    0.514306
C      1.025131   -0.742661   -0.395595
C      1.748915   -2.029968   -0.675846
C      3.044887   -1.670425   -1.370496
C      3.790847   -0.833619   -0.349267
C      4.917459   -1.254151    0.107107
C      5.713244   -0.522434    1.104849
O      6.812000   -0.938590    1.543235
C      5.134240    0.724378    1.550289
C      3.979402    1.121669    1.055286
C      3.176825    0.437231    0.067050
C      3.250115    1.310282   -1.192546
C     -1.232916    0.625446   -1.423917
H     -0.117089   -1.114821    1.317698
H     -4.100009    2.113229    1.317926
H     -3.097311    2.560202   -0.154639
H     -5.417698    1.690582   -1.307238
H     -5.065253    3.386934   -0.927681
H     -6.048753    2.402945    0.222192
H     -2.494747    0.614339    2.494496
H     -3.621362   -0.710227    2.190862
H     -1.823966   -1.020792    2.376670
H     -3.040847   -1.678187   -1.068977
H     -0.912198   -2.341294   -1.370591
H     -0.949216   -3.005426    0.287842
H     -3.235118   -3.595019    0.358151
H     -4.349205   -2.295716    0.836849
H     -2.883120   -2.675522    1.830065
H     -0.977428    2.265626    0.881835
H     -0.558749    0.866748    1.953903
H      1.353574    1.991369    1.569298
H      0.409286    3.054869   -0.310021
H      1.782680   -0.250886    1.516185
H      0.878888   -0.217007   -1.343452
H      2.001518   -2.488763    0.303251
H      1.095994   -2.648054   -1.290441
H      2.799342   -0.973904   -2.192646
H      3.619032   -2.520978   -1.708522
H      5.321871   -2.219917   -0.264022
H      5.632626    1.362199    2.299858
H      3.599081    2.113417    1.469702
H      4.158784    1.029947   -1.808458
H      3.348040    2.367686   -1.008826
H      2.399251    1.133767   -1.872036
H     -2.256109    0.992389   -1.682852
H     -0.536058    1.393890   -1.764817
H     -1.012601   -0.317341   -2.003247
