36

C      2.889670   -0.144829   -0.885559
C      4.107997   -0.419922   -0.307270
C      4.199293   -0.638769    1.049394
C      3.052737   -0.573945    1.800340
C      1.854782   -0.293431    1.173775
C      1.712796   -0.073438   -0.157054
C      0.550764    0.456406   -0.763605
N      0.691251    1.094245   -1.913055
C     -0.282761    1.754655   -2.772961
C     -1.098331    2.730476   -1.931403
N     -1.883517    2.361700   -0.796355
C     -1.855056    1.030810   -0.226790
C     -0.794022    0.151528   -0.235623
N     -1.160967   -1.045381    0.246395
N     -2.471530   -0.896245    0.566961
C     -2.913306    0.331986    0.297520
C     -4.256668    0.960342    0.480466
C     -0.419657   -2.258851    0.402040
C     -0.156908   -2.613145    1.820710
O     -1.079263    3.940920   -2.257722
H      2.855664    0.022104   -1.956418
H      5.022931   -0.471693   -0.898658
H      5.172472   -0.860073    1.514210
H      3.133086   -0.746918    2.864702
H      0.999895   -0.191172    1.810142
H     -1.008313    1.087316   -3.232002
H      0.286204    2.354131   -3.497774
H     -2.513593    3.019096   -0.347274
H     -4.172939    2.046915    0.618852
H     -4.911670    0.772955   -0.396209
H     -4.692728    0.518755    1.392966
H      0.566957   -2.236408   -0.133695
H     -1.016365   -3.110922   -0.026749
H      0.903623   -2.767028    2.072809
H     -0.766316   -3.512360    2.151628
H     -0.546215   -1.779814    2.473266
