40

C     -2.688531   -1.063734   -0.361056
C     -1.742592    0.095632   -0.486768
C     -0.448435    0.017988   -0.010654
C      0.434162    1.072145   -0.117218
C     -0.030781    2.219408   -0.724309
C     -1.326925    2.310985   -1.206532
C     -2.196105    1.247135   -1.091569
O      1.729554    1.032717    0.344436
C      2.809149    0.623090   -0.385730
N      4.107442    0.619306    0.182682
C      5.283363    0.190659   -0.560667
C      5.438360   -1.298316   -0.329211
C      4.301957    1.051099    1.547314
O      2.663661    0.245674   -1.567476
N     -3.946135   -0.524567    0.097290
C     -3.879568    0.019335    1.429142
C     -5.048051   -1.432137   -0.090755
C     -2.901882   -1.594972   -1.761145
H     -2.284519   -1.852107    0.278681
H     -0.140704   -0.904672    0.454770
H      0.594936    3.099545   -0.851591
H     -1.677705    3.216033   -1.679930
H     -3.226648    1.318910   -1.474568
H      5.210136    0.407708   -1.638410
H      6.192784    0.681003   -0.134104
H      5.186961   -1.485714    0.738480
H      4.767323   -1.857390   -1.023251
H      6.493583   -1.617162   -0.546262
H      5.178919    1.699369    1.656573
H      3.419571    1.663538    1.867914
H      4.317687    0.187590    2.262972
H     -2.840270    0.120014    1.800881
H     -4.283810    1.058222    1.376287
H     -4.489654   -0.526656    2.167431
H     -5.907882   -1.097373    0.520646
H     -4.814780   -2.477327    0.190828
H     -5.368194   -1.358132   -1.150442
H     -1.984189   -2.017677   -2.204251
H     -3.698303   -2.356962   -1.794470
H     -3.203884   -0.732210   -2.404065
