23

C      2.787315   -0.301374   -1.923634
C      1.587183   -0.808271   -1.514190
C      1.166746   -0.649321   -0.220098
C      1.963206    0.032735    0.690002
C      3.183874    0.555390    0.297758
C      3.586702    0.387278   -0.996192
Br     1.349022    0.239446    2.493436
N     -0.076937   -1.174007    0.206384
C     -1.309307   -0.434065    0.142183
N     -1.369323    0.708660   -0.430476
C     -2.709230    1.218478   -0.349651
C     -3.329117    0.437721    0.778063
N     -2.574190   -0.812135    0.669432
F      0.794536   -1.470546   -2.363483
H      3.170992   -0.393653   -2.924135
H      3.751700    1.071404    1.048320
H      4.544988    0.800572   -1.293901
H     -0.133458   -2.141960    0.590588
H     -2.742630    2.313366   -0.174679
H     -3.260386    0.977606   -1.307183
H     -3.087733    0.939612    1.746109
H     -4.414566    0.266658    0.649537
H     -2.879388   -1.763591    0.916833
