29

C      3.315509   -1.562986   -2.322831
O      2.012259   -1.393767   -1.763868
N      1.063765   -0.660294   -2.434922
C      0.162247    0.015047   -1.802079
C     -0.804533    0.763879   -2.555779
N     -1.576591    1.346239   -3.168182
C      0.154116   -0.003679   -0.344826
C      0.326455    1.368113    0.274511
N     -0.140003    1.249605    1.658971
C     -1.582818    1.444967    1.606455
C     -2.110100    0.640035    0.418388
C     -1.191085   -0.530092    0.176733
C     -0.856428   -1.103437    1.561280
C      0.103165   -0.082374    2.183430
H      3.958434   -0.810743   -1.787473
H      3.689002   -2.599184   -2.183560
H      3.242003   -1.374507   -3.399689
H      0.987830   -0.622221    0.041835
H      1.380004    1.704720    0.244391
H     -0.295124    2.132303   -0.239334
H     -1.831382    2.530556    1.460512
H     -2.012217    1.029067    2.526537
H     -2.244968    1.290328   -0.450866
H     -3.116331    0.260959    0.697859
H     -1.620933   -1.277550   -0.487282
H     -1.741532   -1.256278    2.174037
H     -0.303032   -2.041105    1.367144
H      1.157165   -0.393457    2.061528
H     -0.124876   -0.064142    3.256301
