38

C     -0.399347   -0.294931   -0.170392
O      0.867002   -0.530653    0.354226
C      1.983025    0.200138    0.181748
C      3.233074   -0.105913    0.481217
C      4.221703    0.802421    0.190297
C      4.088737    2.024552   -0.377952
C      2.714665    2.382758   -0.732959
C      1.711591    1.481709   -0.465642
C      3.543750   -1.524436    0.859335
O      3.914723   -1.697638    2.174110
O     -1.041296    0.742050    0.378483
C     -2.407549    0.788146    0.249814
C     -3.103813   -0.506102    0.474432
O     -4.482066   -0.415371    0.285749
C     -2.504285   -1.457200   -0.582989
C     -1.095266   -1.625021   -0.162374
O     -0.389557   -2.639812   -0.780036
O     -3.265410   -2.627763   -0.635404
C     -2.968513    1.902157    1.082845
O     -2.525780    3.164994    0.628901
H     -0.230246   -0.019981   -1.261342
H      5.307434    0.482553    0.402275
H      4.845340    2.718813   -0.628845
H      2.639619    3.343968   -1.169137
H      0.691593    1.697546   -0.798681
H      2.918007   -2.287764    0.424351
H      4.597693   -1.677474    0.287238
H      3.050861   -1.530834    2.699019
H     -2.582135    1.070672   -0.838886
H     -2.861120   -0.842980    1.487857
H     -4.746542   -1.099950   -0.405686
H     -2.527116   -0.939874   -1.538497
H     -1.111232   -1.969530    0.933422
H      0.386940   -2.856644   -0.207782
H     -3.122875   -3.220926    0.123806
H     -4.045459    1.954146    1.081435
H     -2.510425    1.799916    2.104942
H     -2.795725    3.314257   -0.330304
