44

C     -3.005029    1.460944    1.346226
C     -2.675573    0.142387    1.286204
C     -2.108457   -0.513733    0.113254
C     -0.935588   -0.157646   -0.569450
N     -0.722667   -1.043686   -1.571732
C     -1.750978   -1.946270   -1.516997
N     -2.563552   -1.614031   -0.508836
C     -1.745724   -2.956268   -2.454880
C     -0.784804   -3.112296   -3.429731
C      0.223255   -2.187649   -3.446667
C      0.226893   -1.169547   -2.508967
C     -0.129094    0.998107   -0.166444
N      1.056724    1.304651   -0.863938
C      2.329215    0.753275   -0.464439
C      2.394008   -0.154877    0.704715
C      3.826358   -0.602999    0.925465
C      4.728039    0.580729    1.184597
O      3.384790    1.027957   -1.088631
C      1.045857    2.219072   -1.987044
C     -2.864744   -0.633394    2.436912
C     -3.366240   -0.033354    3.556564
C     -3.694491    1.316054    3.594083
C     -3.506079    2.076806    2.454794
Cl    -4.334670    2.093451    5.016954
H     -2.894725    2.074407    0.466988
H     -2.552427   -3.688704   -2.434506
H     -0.827952   -3.932960   -4.150883
H      0.989117   -2.271615   -4.186261
H      1.041809   -0.486329   -2.583347
H      0.071517    0.938712    0.958351
H     -0.766158    1.929465   -0.225232
H      1.972462    0.315601    1.607238
H      1.806839   -1.089513    0.469234
H      4.198590   -1.170394    0.058393
H      3.904744   -1.282267    1.799365
H      4.141050    1.520169    1.065862
H      5.537405    0.609102    0.426602
H      5.179053    0.532545    2.196966
H      1.999815    2.178696   -2.545059
H      0.234361    1.929917   -2.678900
H      0.811134    3.227896   -1.591322
H     -2.607759   -1.701687    2.416402
H     -3.524698   -0.609614    4.466891
H     -3.741625    3.128891    2.421207
