54

N     -2.151637    5.933307   -1.005795
C     -2.572958    4.746874   -1.010658
C     -3.027894    3.475573   -1.037064
C     -4.378222    3.110218   -1.016284
C     -4.815140    1.810296   -0.914721
C     -3.888801    0.777731   -0.832156
O     -4.481975   -0.512471   -0.711450
C     -3.856189   -1.441868    0.165441
C     -4.738506   -2.155948    0.945754
C     -4.223187   -3.094507    1.845850
C     -2.867934   -3.325713    1.975643
C     -1.980005   -2.618693    1.198494
C     -2.508527   -1.702210    0.320047
C     -1.447490   -1.057302   -0.407541
C     -1.437415    0.210583   -0.888822
C     -0.352199    0.892498   -1.630875
C      0.959998    0.897913   -0.903822
N      1.090558   -0.294048   -0.135250
C      0.963604   -1.542444   -0.838011
C     -0.404050   -2.087238   -0.608417
C      2.059802   -0.316259    0.894358
C      3.497469   -0.305686    0.542380
C      4.363484   -0.356583    1.836607
C      5.732422   -0.048218    1.235589
C      5.445383    1.126386    0.357550
C      4.022842    0.917868   -0.150199
C     -2.569262    1.153678   -0.862694
C     -2.090366    2.432416   -0.957514
H     -5.088951    3.928375   -1.094363
H     -5.869316    1.550967   -0.891455
H     -5.804004   -1.980639    0.855987
H     -4.932753   -3.629598    2.447889
H     -2.477110   -4.054501    2.688537
H     -0.908763   -2.697609    1.241873
H     -0.125656    0.040687   -2.385414
H     -0.574452    1.585784   -2.409894
H      1.834586    0.931236   -1.586174
H      1.107127    1.818150   -0.268697
H      1.776309   -2.284274   -0.581014
H      1.225134   -1.306603   -1.887328
H     -0.556004   -3.114258   -0.415803
H     -0.698562   -2.253976   -1.754404
H      1.853282   -1.254425    1.513474
H      1.819164    0.495077    1.617666
H      3.840671   -1.178917   -0.019993
H      4.121041    0.491259    2.491332
H      4.348529   -1.345371    2.268391
H      6.509656    0.108224    1.997665
H      6.019543   -0.895624    0.553841
H      6.148087    1.081570   -0.493540
H      5.544195    2.091091    0.859305
H      3.449237    1.845922    0.056484
H      4.115324    0.825308   -1.250692
H     -1.020118    2.575992   -0.960117
