48

C     -1.048483    0.664345   -0.728629
C     -1.960497   -0.375197   -0.191520
C     -1.471434   -1.402079    0.554430
C     -0.027985   -1.498227    0.902181
C      0.709006   -0.226277    0.662631
C     -0.147378    1.001280    0.412422
C     -0.906955    1.406302    1.651108
C     -1.889313    2.478110    1.306221
C     -2.071528    2.766870   -0.113510
C     -2.026165    1.724936   -1.141082
O     -3.293627    1.042152   -1.318906
C     -3.251766   -0.139786   -0.556060
C     -4.175697   -1.075533   -0.106145
C     -3.749669   -2.154133    0.660634
C     -2.392837   -2.324515    0.996433
O     -5.511597   -0.938520   -0.417639
O     -2.275647    3.920695   -0.524327
O      0.688777    2.039672    0.055941
N      1.611271   -0.395294   -0.423857
C      2.955954    0.007135   -0.220100
C      3.610622   -0.924702    0.776504
O      4.923984   -0.628944    1.047530
C      5.777882   -0.669434   -0.023632
C      1.075509   -0.315674   -1.716397
C     -0.299527    0.177040   -1.910285
H      0.117236   -1.896086    1.941581
H      0.385406   -2.302957    0.237903
H      1.284075    0.004857    1.583278
H     -0.163048    1.833683    2.364192
H     -1.377730    0.533672    2.154895
H     -1.640373    3.450191    1.810536
H     -2.902502    2.207804    1.712162
H     -1.791227    2.116732   -2.165184
H     -4.482896   -2.883265    1.006166
H     -2.058927   -3.163196    1.593400
H     -6.194316   -1.593337   -0.110077
H      0.967727    2.052774   -0.871404
H      3.535839    0.091978   -1.150542
H      2.992797    1.042864    0.233183
H      3.073910   -0.885268    1.751479
H      3.473353   -1.992167    0.438805
H      5.539515    0.021044   -0.837525
H      6.792637   -0.369605    0.368172
H      5.884111   -1.681764   -0.473148
H      1.220292   -1.327752   -2.205229
H      1.765012    0.342059   -2.331928
H     -0.361044    0.922973   -2.768322
H     -0.912746   -0.685454   -2.328890
