39

C     -0.570271    2.873415   -0.575253
C     -1.631643    3.749277   -0.704076
C     -2.903738    3.316439   -0.415138
C     -3.097047    2.031020   -0.006064
C     -2.012270    1.151237    0.121153
C     -0.726058    1.573794   -0.167698
C      0.544611    0.811368   -0.096579
C      0.639686   -0.521218   -0.107194
C     -0.451376   -1.476487   -0.199072
C     -1.790332   -1.313005    0.098909
C     -2.646067   -2.391284   -0.081243
C     -2.170097   -3.596016   -0.546655
C     -0.830520   -3.740310   -0.839178
C      0.029149   -2.686855   -0.667646
C     -2.525144   -0.131902    0.598625
C      1.977779   -1.180114    0.060586
N      2.655104   -0.214508    0.975465
C      3.896347   -0.763753    1.467207
C      2.961146    0.892910    0.102873
C      1.706544    1.722575   -0.066956
H      0.389456    3.248327   -0.793901
H     -1.467892    4.784945   -1.034311
H     -3.731058    4.000605   -0.516345
H     -4.109496    1.716480    0.215180
H     -3.715834   -2.304277    0.143342
H     -2.830266   -4.451110   -0.692755
H     -0.471294   -4.693371   -1.204252
H      1.067934   -2.784530   -0.899579
H     -2.505180   -0.086918    1.722127
H     -3.590860   -0.260300    0.303887
H      1.944812   -2.083396    0.696042
H      2.599312   -1.191943   -0.814878
H      4.224325   -1.522163    0.699170
H      4.664943    0.054906    1.452555
H      3.808459   -1.225264    2.463543
H      3.806079    1.508719    0.491070
H      3.267409    0.546671   -0.910736
H      1.704105    2.419217    0.779373
H      1.889240    2.216820   -1.051597
