45

C      1.577077   -1.118521    0.996693
C      2.274487   -2.321689    1.170255
C      2.796883   -2.964745    0.068583
C      2.633353   -2.431177   -1.184533
C      1.928660   -1.226898   -1.314147
C      1.397782   -0.556578   -0.260506
C      0.677807    0.722034   -0.323728
C     -0.690457    0.751028    0.228206
C     -1.758035   -0.083303   -0.370635
C     -1.594422   -1.571192   -0.327222
C     -2.816983   -2.175319   -1.048931
C     -1.777259   -2.002269    1.146467
N     -1.194775    1.924630    0.853553
C     -0.596692    2.258960    2.111374
C     -1.602745    3.007190    0.051453
C      1.585499    1.817543    0.143242
C      2.050720    2.082187   -1.304358
C      0.763005    1.405341   -1.704851
Cl     3.680864   -4.494970    0.242489
H      1.200776   -0.687149    1.915991
H      2.396872   -2.729546    2.176544
H      3.037933   -2.928497   -2.046475
H      1.819475   -0.846483   -2.289348
H     -0.521059    0.085839    1.238150
H     -2.076278    0.220992   -1.388097
H     -2.679363    0.126435    0.258768
H     -0.690854   -1.994556   -0.711491
H     -3.685909   -1.563722   -0.833194
H     -2.896321   -3.213209   -0.703275
H     -2.571290   -2.093205   -2.128006
H     -2.104374   -1.117432    1.759568
H     -0.846888   -2.413649    1.562452
H     -2.597774   -2.765236    1.202084
H      0.222322    1.528325    2.321163
H     -0.290410    3.308458    2.235602
H     -1.381268    1.991193    2.882704
H     -2.309989    3.630593    0.683056
H     -0.803120    3.726237   -0.213715
H     -2.143622    2.738767   -0.874063
H      2.493137    1.486639    0.701133
H      1.189291    2.719755    0.598019
H      2.082486    3.177264   -1.492363
H      2.993643    1.613803   -1.587952
H     -0.028757    2.174624   -1.868395
H      0.856574    0.801507   -2.572263
