42

C      0.228366    1.138389   -2.405220
C     -0.580568    1.002583   -3.507535
C     -1.571592    0.049097   -3.601484
C     -1.746667   -0.795065   -2.535532
C     -0.939130   -0.691378   -1.378858
C      0.043080    0.268129   -1.318042
N      0.971175    0.401795   -0.264851
C      1.888461   -0.738427   -0.047098
C      3.276244   -0.163620   -0.381269
N      3.593406    0.954049    0.443995
C      4.700293    0.616596    1.360863
C      2.543940    1.463114    1.247986
C      1.177821    1.510336    0.603793
C     -1.241301   -1.552933   -0.222281
C     -2.312630   -0.991199    0.638039
C     -3.311988   -1.831539    1.089054
C     -4.347619   -1.342474    1.873218
C     -4.393436   -0.010655    2.211875
C     -3.397829    0.821167    1.759305
C     -2.353017    0.319498    0.965997
H      1.003863    1.886540   -2.335975
H     -0.428127    1.688367   -4.354974
H     -2.186544   -0.017591   -4.497737
H     -2.517395   -1.575217   -2.550474
H      1.703529   -1.569084   -0.719027
H      1.867881   -0.970119    1.020498
H      4.038433   -0.975143   -0.235563
H      3.262624    0.106462   -1.459508
H      4.418311   -0.339300    1.883766
H      4.681785    1.390194    2.159504
H      5.656580    0.501944    0.850057
H      2.461236    0.837350    2.173205
H      2.822045    2.477346    1.615683
H      0.461671    1.515549    1.448479
H      1.038974    2.451931    0.026040
H     -1.489741   -2.601347   -0.526862
H     -0.343269   -1.574314    0.435104
H     -3.338534   -2.903703    0.854291
H     -5.134560   -1.978713    2.232528
H     -5.216744    0.380681    2.838051
H     -3.379487    1.874683    1.992500
H     -1.609541    1.024166    0.618457
