68

C     -0.498479   -2.145622   -0.327454
C     -1.540071   -1.330622    0.343220
O     -1.830972   -0.113763   -0.298536
C     -1.756667    1.104400    0.323151
C     -2.059596    2.397611   -0.362482
C     -1.897280    3.562115    0.601402
C     -2.804709    3.465757    1.779071
C     -1.234788    2.610754   -1.591550
C     -3.518562    2.355087   -0.765437
O     -1.411211    1.083149    1.533853
C     -2.771521   -2.153861    0.611321
C     -2.345033   -3.602514    0.689030
C     -3.466296   -4.486092    1.190278
C     -2.006278   -3.943597   -0.738266
C     -1.054934   -3.183121   -1.245669
C     -0.572030   -3.322316   -2.621854
C      0.597334   -2.840660   -2.949076
C      1.422600   -2.164409   -1.939801
C      0.592335   -1.345344   -1.020804
C      1.480971   -0.688297    0.030879
C      2.575242    0.119088   -0.619394
C      3.423659    0.786466    0.479589
C      2.530353    1.676953    1.288397
C      3.323491    2.709104    2.043993
C      4.095083    3.620628    1.137726
C      4.357774    2.953114   -0.160618
O      4.385015    1.566624   -0.208691
O      4.548199    3.669582   -1.180481
O      4.204065    2.131205    2.952741
C      2.213893   -3.244196   -1.230633
H      0.075385   -2.739660    0.449612
H     -1.202222   -1.038014    1.384191
H     -0.846346    3.504593    0.956003
H     -1.993384    4.532066    0.086966
H     -3.599995    4.251760    1.784067
H     -3.267037    2.445482    1.907637
H     -2.219750    3.643307    2.703620
H     -0.947347    1.620624   -2.007172
H     -1.770193    3.201918   -2.368132
H     -0.340594    3.212393   -1.308664
H     -3.905753    3.346688   -1.055461
H     -3.621780    1.642914   -1.633801
H     -4.159957    1.905089    0.041220
H     -3.509707   -2.094811   -0.228755
H     -3.322630   -1.827467    1.514165
H     -1.464704   -3.694509    1.320529
H     -4.346074   -3.835495    1.343569
H     -3.115969   -4.947567    2.133817
H     -3.723434   -5.227624    0.406887
H     -2.454529   -4.702753   -1.318118
H     -1.222654   -3.840761   -3.349971
H      0.950332   -2.940787   -3.953174
H      2.188651   -1.516382   -2.429068
H      0.125193   -0.531838   -1.597423
H      1.953039   -1.495321    0.636703
H      0.877127   -0.050525    0.667508
H      3.308322   -0.558449   -1.150487
H      2.178471    0.905131   -1.284581
H      3.904326   -0.019332    1.067145
H      1.855257    2.219250    0.593143
H      1.976184    1.061453    2.006218
H      2.603220    3.318404    2.652448
H      3.516865    4.574138    0.962555
H      5.088288    3.914876    1.547257
H      4.175833    1.156406    2.968572
H      2.954179   -2.845510   -0.518823
H      2.753040   -3.843429   -1.993461
H      1.568760   -3.953478   -0.680643
