31

C     -4.013714    0.667152    0.134175
C     -4.384646   -0.644932   -0.070334
C     -3.434834   -1.641896   -0.102984
C     -2.074461   -1.345611    0.070606
C     -1.676263   -0.049193    0.274090
C     -2.673021    0.934740    0.300968
C     -2.295927    2.336753    0.507466
C     -0.298170    0.376234    0.405707
N      0.831781   -0.261113   -0.103576
C      2.158028    0.299473    0.119612
N      2.480770    1.415225    0.788319
O      3.773106    1.582873    0.768251
C      4.360886    0.619004    0.106587
C      3.354503   -0.218148   -0.321082
C      5.831490    0.447791   -0.143352
O     -0.049947    1.461756    1.054082
C     -1.134522   -2.509167    0.070406
H     -4.753363    1.460280    0.162497
H     -5.442063   -0.865866   -0.203925
H     -3.735866   -2.660143   -0.263147
H     -2.003489    2.544660    1.536369
H     -1.494661    2.692608   -0.204433
H     -3.166940    3.007672    0.222080
H      0.752914   -1.135692   -0.644552
H      3.479635   -1.122402   -0.900516
H      5.955804   -0.109469   -1.113894
H      6.331148   -0.115881    0.640920
H      6.236844    1.465314   -0.316297
H     -0.791520   -2.805948   -0.919504
H     -0.377939   -2.410075    0.862088
H     -1.745565   -3.416000    0.418320
