54

C     -4.929337    1.152319    0.275564
C     -4.621049   -0.102876   -0.182985
N     -3.438381   -0.789649    0.142693
C     -2.077216   -0.385164    0.207095
C     -1.684261   -0.966994    1.530761
N     -2.442587   -2.159871    1.631774
C     -3.439546   -2.195330    0.550590
O     -0.886065   -0.522938    2.355572
C     -1.785044    1.065712    0.123046
C     -0.423919    1.386070   -0.453631
N      0.563007    0.392888   -0.299044
C      1.641168    0.639660    0.582128
C      2.578739    1.737991    0.075505
C      3.699861    1.967950    1.045233
O      4.520116    0.913252    1.329155
C      5.379379    0.155287    0.596787
C      5.669331    0.301401   -0.739176
C      6.556969   -0.511099   -1.430252
C      7.186257   -1.518675   -0.752408
C      6.923824   -1.698063    0.587023
C      6.048876   -0.896213    1.264090
F      8.070907   -2.353944   -1.371806
C      0.178096   -0.963025   -0.435820
C     -1.264223   -1.074771   -0.898264
C     -5.533578   -0.721427   -1.039098
C     -6.680506   -0.060666   -1.381519
C     -7.011340    1.199827   -0.934399
C     -6.095320    1.788524   -0.091110
H     -4.255507    1.688742    0.971599
H     -2.336866   -2.922645    2.353256
H     -4.407322   -2.473468    1.014371
H     -3.182669   -2.885242   -0.247256
H     -2.519147    1.538475   -0.560751
H     -1.901542    1.575453    1.120900
H     -0.074732    2.337055   -0.003934
H     -0.559713    1.575638   -1.547340
H      1.376021    0.838030    1.636629
H      2.273850   -0.285736    0.605924
H      2.975185    1.506704   -0.915465
H      1.990203    2.694397   -0.071312
H      4.316299    2.819135    0.600774
H      3.303900    2.395930    2.019898
H      5.182864    1.111707   -1.274424
H      6.722792   -0.324125   -2.475736
H      7.414797   -2.500302    1.160357
H      5.834459   -1.032180    2.329696
H      0.253579   -1.468104    0.548542
H      0.790495   -1.540657   -1.166706
H     -1.457292   -0.507898   -1.822764
H     -1.479122   -2.137564   -0.987461
H     -5.314099   -1.733345   -1.425410
H     -7.401423   -0.545469   -2.055982
H     -7.935969    1.698039   -1.228017
H     -6.313196    2.797253    0.294370
