44

C     -1.284729   -1.952838   -1.193067
C     -2.010843   -3.127602   -1.368529
C     -3.134605   -3.302437   -0.586462
C     -3.502078   -2.330912    0.328275
C     -2.760275   -1.156995    0.490269
C     -1.660254   -0.992698   -0.278841
C     -0.705145    0.131563   -0.305996
C     -1.315815    1.441148   -0.121891
C     -2.287524    1.835045    0.767479
O     -2.879647    0.958458    1.685664
C     -3.397929   -0.340172    1.516762
C     -2.752574    3.127059    0.819035
C     -2.220357    4.070370   -0.061983
C     -1.246297    3.701905   -0.963894
C     -0.806517    2.395481   -0.983457
O      0.178728   -0.082719    0.741528
C      1.454221    0.328213    0.303374
C      2.517469   -0.403681    1.049236
N      3.861920   -0.066373    0.755477
C      4.767736   -0.768710    1.711509
C      4.314612   -0.409921   -0.578477
C      1.373660    0.028640   -1.142526
O      0.008299    0.103766   -1.469451
H     -0.412788   -1.869597   -1.836216
H     -1.707090   -3.873744   -2.087581
H     -3.710204   -4.217654   -0.713254
H     -4.378717   -2.492562    0.923192
H     -4.501566   -0.323026    1.256092
H     -3.334644   -0.851507    2.499584
H     -3.510141    3.395693    1.530600
H     -2.604219    5.087542   -0.004098
H     -0.855981    4.474004   -1.638011
H     -0.043544    2.127837   -1.699778
H      1.582804    1.421132    0.439282
H      2.331726   -1.509499    0.968412
H      2.363710   -0.147299    2.143990
H      4.912337   -0.135221    2.590244
H      4.334565   -1.747593    1.982350
H      5.725263   -0.934646    1.206701
H      5.456580   -0.486547   -0.476522
H      3.970232   -1.381650   -0.923311
H      4.170480    0.424567   -1.284476
H      1.762113   -0.948965   -1.475855
H      1.937028    0.802146   -1.745919
