35

C      2.803513   -0.133211    1.039580
C      4.081548   -0.221162    0.575061
C      4.270803   -0.542620   -0.753716
C      3.178780   -0.759584   -1.550132
C      1.876404   -0.670399   -1.078556
C      1.686200   -0.351905    0.238194
C      0.380107   -0.226295    0.858973
C     -0.777695   -0.400168    0.243856
C     -2.085164   -0.252915    0.953216
C     -3.182383    0.166504    0.004457
C     -4.483962    0.302724    0.764735
C     -3.389584   -0.835437   -1.100983
C     -2.875358    1.507157   -0.628179
O     -1.935538    0.749447    1.909541
O      5.662264   -0.567148   -0.968475
C      6.283846    0.155975    0.091204
O      5.358273   -0.057091    1.140185
H      2.662855    0.120827    2.088949
H      3.353714   -1.009780   -2.586649
H      1.025765   -0.841410   -1.707099
H      0.309463    0.030867    1.915529
H     -0.759197   -0.653873   -0.794282
H     -2.362432   -1.178961    1.457089
H     -4.672781   -0.648873    1.310967
H     -4.474713    1.171125    1.455125
H     -5.306990    0.420832    0.035985
H     -4.447708   -0.724149   -1.437786
H     -2.683873   -0.687889   -1.920551
H     -3.337868   -1.848326   -0.634484
H     -3.821639    1.953937   -1.034185
H     -2.475555    2.207473    0.132913
H     -2.128153    1.368600   -1.461485
H     -1.265664    1.385337    1.554250
H      7.294607   -0.190175    0.313629
H      6.238116    1.260565   -0.127990
