37

C      2.274395   -0.902574   -0.491493
C      1.357663   -0.098605    0.165985
N      0.003724   -0.499876    0.362869
C     -0.942060   -0.793871   -0.678259
C     -2.169756   -1.394838   -0.104505
C     -3.348343   -0.527633   -0.287352
C     -3.329211    0.785064    0.136510
C     -4.440676    1.575833   -0.044438
C     -5.577057    1.084226   -0.641861
C     -5.592590   -0.222641   -1.062473
C     -4.487071   -1.030559   -0.889286
C     -1.884072   -1.542833    1.376576
C     -0.684719   -0.690900    1.594246
O     -0.279629   -0.179036    2.688034
O     -0.767638   -0.578355   -1.902187
C      1.831416    1.121517    0.623184
C      3.163967    1.480630    0.411885
C      4.038229    0.638847   -0.251741
C      3.569666   -0.561560   -0.700786
S      5.712352    1.044729   -0.537877
N      6.647931    0.463555    0.803867
O      6.157537    0.312774   -1.771377
O      5.906985    2.524416   -0.688237
Cl     0.737922    2.204132    1.467773
H      1.919573   -1.871564   -0.860962
H     -2.378149   -2.408647   -0.504648
H     -2.430730    1.174808    0.609060
H     -4.421089    2.620975    0.294799
H     -6.461430    1.708142   -0.787507
H     -6.482660   -0.621157   -1.534581
H     -4.558086   -2.041386   -1.237393
H     -1.565162   -2.596678    1.600332
H     -2.730088   -1.228840    2.010647
H      3.548338    2.425260    0.760784
H      4.218169   -1.268443   -1.233055
H      7.405223   -0.186137    0.492816
H      6.037126    0.081226    1.540170
