28

C     -1.312624    0.193587   -1.430101
C     -2.117451    1.313550   -1.437009
C     -3.153127    1.349292   -0.528647
C     -3.357736    0.288065    0.348006
C     -2.535654   -0.798802    0.317813
C     -1.478976   -0.861601   -0.591755
S     -0.483432   -2.273655   -0.564005
N      0.830066   -2.061912    0.550194
C      1.773023   -1.024135    0.333070
N      1.836030   -0.114315   -0.646778
O      2.869503    0.663875   -0.472182
C      3.530094    0.329524    0.594743
C      2.861351   -0.753831    1.147699
C      4.759761    0.959093    1.142852
O     -1.328483   -3.443368   -0.189096
O      0.039308   -2.514602   -1.944819
N     -3.995009    2.489976   -0.515751
H     -0.504818    0.177134   -2.147227
H     -1.980772    2.147440   -2.104193
H     -4.179286    0.310634    1.072318
H     -2.721983   -1.601540    1.009327
H      0.886148   -2.706757    1.348508
H      3.138380   -1.279968    2.038381
H      4.646775    1.262720    2.201566
H      4.984190    1.874543    0.559524
H      5.613228    0.267835    0.977738
H     -4.111860    3.074406    0.333486
H     -4.506648    2.732814   -1.403664
