25

C     -1.351262   -1.467219   -0.793374
C     -1.473199   -0.000396   -0.435571
C     -2.580680    0.614804   -1.300028
O     -0.316538    0.705602   -0.715582
C      0.948260    0.524710   -0.232634
C      1.219880   -0.473114    0.659488
C      2.517533   -0.640508    1.140350
C      3.526902    0.189384    0.725051
Cl     5.180278   -0.010763    1.326944
C      3.268868    1.190376   -0.166151
C      1.971556    1.343499   -0.635154
C     -1.914501    0.113053    0.972529
O     -3.051545   -0.536957    1.432881
O     -1.269726    0.807600    1.807200
H     -1.528983   -2.117388    0.087078
H     -2.086472   -1.735584   -1.586011
H     -0.332276   -1.697143   -1.170558
H     -2.307617    1.645942   -1.607763
H     -2.642202    0.007066   -2.215193
H     -3.525650    0.690219   -0.737954
H      0.462068   -1.169358    1.029978
H      2.763039   -1.425355    1.850527
H      4.080818    1.834463   -0.480933
H      1.808441    2.142427   -1.335130
H     -3.366995   -0.535361    2.380010
