42

C      2.267265    1.056956   -0.729578
C      0.796379    0.923406   -0.548890
O      0.048461    1.910179   -0.394738
O      0.280902   -0.350246   -0.557692
C     -1.077378   -0.632725   -0.399365
C     -1.619812   -0.843595    0.847660
C     -2.984796   -1.127315    1.006485
C     -3.847003   -1.210659   -0.048003
C     -3.272161   -0.992366   -1.308967
C     -1.932442   -0.713281   -1.472944
N     -5.232878   -1.476970   -0.001570
C     -6.032195   -1.552641    1.148597
O     -5.510456   -1.370225    2.270813
C     -7.518200   -1.852444    1.044420
N      2.669716    2.414507   -0.697366
C      3.277779    3.015093   -1.825235
O      3.488218    2.372824   -2.904853
C      3.689628    4.424646   -1.776413
C      2.915949    0.192405    0.322051
C      4.417776    0.230145    0.259489
S      5.028566   -0.863178    1.592482
C      4.584990   -2.591412    1.252693
H      2.515953    0.620565   -1.739170
H     -0.982461   -0.790188    1.725617
H     -3.348558   -1.286502    1.986134
H     -3.938032   -1.051918   -2.183533
H     -1.515094   -0.548545   -2.463747
H     -5.774011   -1.649195   -0.918745
H     -7.645301   -2.495740    0.175240
H     -7.890423   -2.269265    1.990074
H     -7.989922   -0.872637    0.825219
H      2.524325    2.988619    0.155056
H      3.125699    5.060930   -2.502811
H      4.762673    4.553712   -2.025030
H      3.479787    4.855390   -0.777135
H      2.539376    0.504829    1.318616
H      2.581052   -0.851598    0.138209
H      4.744654   -0.188320   -0.702042
H      4.810956    1.242431    0.460541
H      3.953017   -2.980945    2.077114
H      5.543651   -3.168757    1.196596
H      4.064352   -2.635968    0.272510
