51

C     -1.821039   -0.072784   -2.079914
C     -2.308213   -0.038001   -0.799695
N     -2.033304    1.002045    0.117658
C     -0.828658    1.677383    0.471823
C     -1.180184    2.677609    1.513128
C     -2.472813    2.618748    1.772243
S     -3.189046    3.740061    3.016646
C     -2.342559    5.336918    2.674704
C     -0.940685    5.162136    3.196824
S     -0.102326    3.832851    2.349476
C     -3.042125    1.594517    0.930708
O     -4.277234    1.274499    0.924912
O      0.242293    0.829957    0.837445
C      1.459564    0.826912    0.236923
N      2.583468    0.027481    0.498657
C      3.824605    0.225025   -0.263568
C      4.933394   -0.460765    0.535175
N      4.709905   -1.895621    0.451052
C      4.939964   -2.283780   -0.928469
C      3.380753   -2.248899    0.912856
C      2.647762   -1.045950    1.475354
O      1.600150    1.685608   -0.712410
N     -3.100198   -1.057722   -0.396765
C     -3.394351   -2.082012   -1.253394
C     -2.910139   -2.120465   -2.533064
C     -2.101562   -1.105231   -2.983217
C     -3.264936   -3.209068   -3.339076
C     -4.082965   -4.199905   -2.827261
C     -4.554152   -4.132609   -1.532532
N     -4.180084   -3.069174   -0.813276
Cl    -5.591501   -5.372802   -0.855413
H     -1.192312    0.724030   -2.419031
H     -0.469226    2.260088   -0.404822
H     -2.275264    5.446901    1.575539
H     -2.886205    6.170215    3.160107
H     -1.068268    4.951916    4.304639
H     -0.351832    6.107559    3.090664
H      3.711421   -0.357376   -1.202156
H      4.040515    1.281509   -0.416848
H      5.877148   -0.246546   -0.007975
H      5.018972   -0.095848    1.564540
H      5.544702   -1.491768   -1.457314
H      5.525261   -3.221937   -1.009307
H      3.969978   -2.355668   -1.465356
H      2.816533   -2.692347    0.070082
H      3.429688   -3.005481    1.725092
H      1.603918   -1.386215    1.647132
H      3.083371   -0.758500    2.440622
H     -1.715687   -1.126161   -3.987074
H     -2.890359   -3.257577   -4.360136
H     -4.376139   -5.063756   -3.445929
