47

C     -0.581545   -0.164337    2.542141
C     -1.485970   -0.899473    3.297409
C     -2.421276   -1.720550    2.681489
C     -2.434298   -1.790920    1.319749
C     -1.508119   -1.037453    0.562939
C     -0.599348   -0.239582    1.154695
C      0.313921    0.494070    0.252687
C     -0.202437    1.850000   -0.079087
C     -0.101373    2.313698   -1.362912
C     -0.581662    3.588101   -1.705422
C     -1.163055    4.388223   -0.744023
C     -1.266060    3.915491    0.564891
C     -0.776167    2.635877    0.876463
S      0.149696   -0.431279   -1.295782
C     -1.489828   -1.096889   -0.918091
C     -2.605233   -0.254282   -1.486773
C     -1.536829   -2.517086   -1.409441
C      1.694468    0.612227    0.711245
C      2.525724   -0.554784    1.002782
C      2.742714   -1.474920   -0.161819
N      3.354685   -0.722701   -1.242943
C      3.545609   -1.635215   -2.352892
H      0.115936    0.443995    3.096254
H     -1.501265   -0.865841    4.376969
H     -3.143179   -2.308396    3.269763
H     -3.158698   -2.424809    0.862480
H      0.351842    1.714559   -2.156934
H     -0.501556    3.952257   -2.718493
H     -1.548683    5.388354   -0.977090
H     -1.712479    4.528422    1.306351
H     -0.834688    2.228951    1.870836
H     -3.554635   -0.683850   -1.050128
H     -2.705022   -0.369296   -2.568982
H     -2.530969    0.765863   -1.112730
H     -2.167024   -3.153446   -0.753979
H     -0.496639   -2.901624   -1.431233
H     -2.005972   -2.549626   -2.412637
H      1.681661    1.275325    1.643338
H      2.230400    1.297790   -0.030994
H      3.564906   -0.234449    1.338891
H      2.143112   -1.204744    1.826377
H      3.443828   -2.320343    0.147418
H      1.821897   -1.948030   -0.504412
H      4.229783   -0.264166   -0.934680
H      4.418768   -1.365027   -2.970181
H      3.667575   -2.646952   -1.943475
H      2.617483   -1.613129   -2.966702
