37

C     -4.147108    1.188965   -0.270998
N     -3.046614    0.361516   -0.685398
C     -2.335609   -0.218779    0.441684
C     -1.720110    0.831266    1.306370
C     -0.423554    1.273979    0.613861
C      0.527087    0.087127    0.831074
C      1.906913    0.516527    0.526537
C      2.972698   -0.116862    1.127109
C      4.287337    0.252315    0.876695
C      4.581486    1.280403    0.006735
C      3.521022    1.920522   -0.599391
C      2.212662    1.553181   -0.350745
C      0.016695   -1.005281    0.004905
C      0.877771   -1.897742   -0.595585
C      0.364536   -2.919167   -1.367360
C     -0.986796   -3.060321   -1.546614
C     -1.860759   -2.165108   -0.945010
C     -1.320500   -1.144659   -0.172284
H     -3.811202    2.237898   -0.146261
H     -4.991141    1.098667   -0.963395
H     -4.485077    0.846503    0.725163
H     -2.408662    0.818009   -1.339856
H     -3.042228   -0.832424    1.026378
H     -2.377058    1.713432    1.388077
H     -1.413297    0.420916    2.276683
H     -0.635193    1.378451   -0.473845
H     -0.006344    2.181293    1.045202
H      0.404454   -0.220465    1.901437
H      2.846180   -0.938542    1.827373
H      5.119301   -0.263832    1.363992
H      5.608594    1.586090   -0.203218
H      3.755629    2.725885   -1.280426
H      1.383937    2.047900   -0.819644
H      1.967599   -1.818684   -0.477281
H      1.038067   -3.618462   -1.838677
H     -1.440335   -3.846473   -2.143736
H     -2.940379   -2.254042   -1.069550
