64

C     -3.895852   -1.915149   -1.148639
C     -3.910203   -1.234719    0.048674
C     -3.249858    0.090933    0.185334
N     -1.974724    0.007919   -0.481740
C     -1.206834   -1.008431    0.158395
C      0.129338   -1.113030   -0.491733
N      0.838145    0.124143   -0.383278
C      1.226500    0.483762    0.943592
C      2.281320   -0.409498    1.537750
C      3.533160   -0.417514    0.765642
C      3.872290   -1.506177   -0.011091
C      5.053203   -1.533650   -0.749474
C      5.925886   -0.473188   -0.730550
C      5.597759    0.621386    0.042497
C      4.425486    0.638034    0.770020
O      6.502701    1.683652    0.042400
C      6.288041    2.861392    0.788496
O      7.117537   -0.474325   -1.461818
C      7.479759   -1.572631   -2.257593
O      2.543785    0.076262    2.826569
C      0.116144    1.216220   -0.968320
C     -1.335484    1.235413   -0.718831
C     -4.157715    1.118664   -0.320043
C     -4.377609    1.367784   -1.655876
C     -5.254242    2.356599   -2.082674
C     -5.929172    3.116953   -1.165961
C     -5.730641    2.892077    0.163804
C     -4.849927    1.898597    0.579192
C     -4.551216   -1.776631    1.165735
C     -5.158678   -2.999461    1.023631
C     -5.157222   -3.700349   -0.167539
C     -4.517116   -3.142034   -1.253973
H     -3.402019   -1.507779   -2.017894
H     -3.052864    0.281921    1.276730
H     -1.054678   -0.838140    1.243524
H     -1.734001   -1.989841    0.077195
H     -0.025747   -1.330393   -1.569339
H      0.751279   -1.941623   -0.106272
H      1.659616    1.511661    0.894069
H      0.382861    0.544542    1.666986
H      1.877125   -1.422608    1.668531
H      3.202500   -2.348158   -0.040527
H      5.279947   -2.405010   -1.343741
H      4.184042    1.509242    1.373737
H      6.650442    2.678996    1.838942
H      6.905777    3.652089    0.298666
H      5.223074    3.159043    0.796732
H      7.409444   -2.525340   -1.694903
H      6.833841   -1.655814   -3.173523
H      8.516256   -1.421142   -2.622945
H      2.574801    1.071268    2.847519
H      0.581355    2.190045   -0.675142
H      0.282418    1.142632   -2.083853
H     -1.527956    1.908946    0.167425
H     -1.843291    1.768752   -1.574214
H     -3.868668    0.796562   -2.417008
H     -5.426351    2.551420   -3.140666
H     -6.630907    3.908893   -1.444071
H     -6.261372    3.489959    0.895241
H     -4.746835    1.781537    1.648991
H     -4.557819   -1.232825    2.106911
H     -5.668188   -3.458756    1.862625
H     -5.659502   -4.667107   -0.209689
H     -4.529140   -3.715974   -2.187800
