57

C     -4.282483   -0.668573    1.856933
C     -5.566905   -1.026285    2.231111
C     -6.072558   -0.761931    3.617902
F     -5.219878   -1.350562    4.525547
F     -6.155956    0.597322    3.762405
F     -7.316672   -1.361747    3.734584
C     -6.408717   -1.612109    1.314091
C     -5.937365   -1.832977    0.006736
C     -4.695018   -1.483250   -0.341300
C     -3.806497   -0.881592    0.581299
C     -2.485692   -0.605692    0.043530
C     -2.638507    0.426077   -1.018551
C     -3.308949    0.013105   -2.178387
C     -3.439713    0.847240   -3.216402
C     -2.912590    2.141760   -3.147294
F     -3.028825    2.982154   -4.177251
C     -2.263944    2.528556   -1.998803
C     -2.111164    1.681284   -0.905807
S     -4.080359   -1.641686   -2.039615
C     -1.325180   -0.506574    0.929969
C     -0.064263   -0.309421    0.093674
C      1.186078   -0.297061    0.988085
N      2.376091   -0.128237    0.288960
C      2.720852    1.076875   -0.317720
C      4.091314    0.890355   -0.989021
N      5.061116    0.616328    0.032468
C      6.390502    0.471005   -0.546928
C      7.466733    0.244370    0.474513
O      7.448842    1.377180    1.323815
C      4.720417   -0.532208    0.850604
C      3.353257   -1.124321    0.477428
H     -3.651215   -0.213160    2.607148
H     -7.400137   -1.881746    1.632291
H     -6.656109   -2.303088   -0.668697
H     -2.244123   -1.562254   -0.589106
H     -3.969667    0.506199   -4.118202
H     -1.822644    3.531046   -1.879853
H     -1.622862    2.056143   -0.011860
H     -1.350445    0.276827    1.713143
H     -1.164803   -1.500879    1.420443
H      0.045977   -1.184743   -0.621600
H     -0.006789    0.608860   -0.484364
H      1.060784    0.525569    1.744877
H      1.135262   -1.268483    1.536003
H      2.812287    1.950424    0.388304
H      1.984768    1.396176   -1.105610
H      3.953538    0.022483   -1.700582
H      4.419177    1.795119   -1.510026
H      6.593404    1.398633   -1.112972
H      6.341439   -0.411657   -1.220946
H      8.425918    0.188828   -0.090964
H      7.269643   -0.650213    1.103460
H      7.425408    2.168208    0.706212
H      5.444738   -1.325786    0.638606
H      4.676238   -0.298282    1.937963
H      3.140188   -1.870257    1.267463
H      3.466059   -1.723353   -0.467665
