37

C     -1.325339    1.685796    0.520998
C     -0.746968    0.419799   -0.083557
C      0.773208    0.453535   -0.008295
C      1.312334   -0.802981   -0.600413
C      2.825633   -0.816610   -0.547047
C      3.391123   -2.082350   -1.152711
C      1.368288    0.931115    1.239573
C      1.127163    0.240157    2.515331
C     -1.058173    0.491150   -1.532729
N     -2.298509    0.056536   -2.031904
C     -3.111766   -0.849718   -1.298054
O     -4.233260   -1.256924   -1.725700
N     -2.573532   -1.265359   -0.048674
C     -1.321138   -0.818457    0.439954
O     -0.788205   -1.553900    1.316862
O     -0.214805    0.946718   -2.361038
C     -2.814689    1.757472    0.507907
H     -0.973182    2.588036   -0.066954
H     -0.974482    1.889233    1.547321
H      1.045014    1.256590   -0.780516
H      0.976394   -1.741201   -0.164152
H      1.060187   -0.869567   -1.691974
H      3.134448   -0.841751    0.533950
H      3.259858    0.093411   -0.988957
H      4.353956   -2.315339   -0.659568
H      2.690006   -2.926856   -1.095455
H      3.648484   -1.820314   -2.220575
H      2.485906    0.986734    1.082963
H      1.082558    2.003968    1.375705
H      1.500394   -0.810314    2.555401
H      0.130155    0.376047    2.972937
H      1.813361    0.754060    3.273327
H     -2.656421    0.400010   -2.976775
H     -3.136426   -1.944377    0.550926
H     -3.306299    0.866430    0.979392
H     -3.267847    1.892024   -0.494616
H     -3.177428    2.627197    1.117116
