28

C      1.895865   -1.215233    1.233493
C      3.193518   -0.736662    1.171048
C      3.535257    0.112071    0.144026
C      2.628928    0.483393   -0.799069
C      1.328385   -0.010886   -0.716098
C      0.964822   -0.857671    0.298168
C     -0.419235   -1.360512    0.359310
C     -1.312269   -0.178183    0.054525
C     -1.054167    0.420101   -1.287844
C      0.357489    0.401599   -1.752286
N     -2.715662   -0.537755    0.107722
C     -3.433432    0.656402    0.371277
O     -4.651859    0.918829    0.102863
N     -2.487047    1.529788    1.016713
C     -1.243660    0.850600    1.122964
O     -0.315188    1.071897    1.928237
H      1.613701   -1.883185    2.035581
H      3.931952   -1.030519    1.927243
H      4.534418    0.479715    0.097211
H      2.878059    1.148392   -1.612475
H     -0.566499   -2.090545   -0.460057
H     -0.710145   -1.743913    1.343224
H     -1.738902   -0.078167   -2.021427
H     -1.423896    1.485993   -1.235588
H      0.419576   -0.279295   -2.629444
H      0.640242    1.420887   -2.128623
H     -3.149901   -1.483376   -0.018915
H     -2.700350    2.506235    1.348221
