54

C     -2.530780   -0.145814   -1.394200
C     -2.502248   -0.530917    0.087981
C     -3.124796   -1.872026    0.244932
C     -4.627694   -1.841609    0.086819
C     -5.159913   -0.927498    1.129479
O     -6.126810   -1.283094    1.843592
C     -4.491625    0.357044    1.243887
C     -3.271586    0.571274    0.775831
C     -2.700121    1.902933    0.946730
C     -1.236202    2.015205    0.820540
C     -0.533266    0.879194    0.172556
C      0.903659    0.853161    0.607515
C      1.674349    2.101294    0.365519
C      3.094503    1.618684    0.701879
C      3.095342    0.131899    0.320732
O      3.338532   -0.688553    1.405774
C      4.140631   -0.035151   -0.700982
O      4.102624    0.615826   -1.719155
C      5.237895   -0.997779   -0.485212
O      6.140149   -1.041979   -1.530342
C      1.694854   -0.169219   -0.167367
C      1.587771   -0.004238   -1.663121
C      1.214938   -1.528671    0.186674
C     -0.242645   -1.567266    0.474764
O     -0.722298   -2.691611    0.560092
C     -1.127872   -0.425182    0.660422
H     -3.513765   -0.452586   -1.845540
H     -1.776338   -0.697545   -1.981237
H     -2.491863    0.950946   -1.536342
H     -2.921377   -2.308884    1.237188
H     -2.716738   -2.512355   -0.584760
H     -4.970264   -1.512535   -0.893540
H     -4.980337   -2.892535    0.268171
H     -5.053864    1.158276    1.745946
H     -2.999226    2.309080    1.953455
H     -3.224524    2.584442    0.214135
H     -0.997216    2.942376    0.220531
H     -0.733798    2.211631    1.813080
H     -0.563110    0.962465   -0.913007
H      0.983237    0.606217    1.685228
H      1.609200    2.509520   -0.644892
H      1.435688    2.853223    1.147967
H      3.300865    1.749949    1.774614
H      3.781167    2.207176    0.095835
H      4.200857   -0.445389    1.826210
H      4.856678   -2.050353   -0.356981
H      5.817316   -0.791823    0.439049
H      6.522894   -0.129341   -1.713457
H      0.578641   -0.340721   -1.971589
H      2.278820   -0.776384   -2.097996
H      1.814302    1.005797   -2.012713
H      1.818812   -1.899524    1.040013
H      1.386414   -2.257407   -0.645263
H     -1.269862   -0.279623    1.775472
