48

C     -3.313056   -0.624999    0.500767
C     -3.632910    0.712543    0.215749
C     -2.614934    1.655222   -0.016848
C     -1.280419    1.280587    0.031370
C     -1.081654   -0.046468    0.317373
C     -1.976842   -1.000737    0.549010
C     -1.502994   -2.374700    0.826631
C     -0.033778   -2.498480    0.975066
C      0.672140   -1.253751    1.411531
C      0.350751   -0.266999    0.322494
C      0.802147    1.139129    0.746893
C      2.211546    1.081081    0.607729
C      2.818485   -0.080913    0.916203
C      2.153375   -1.291407    1.383763
O      3.041760    2.080652    0.194822
C      2.756144    3.371211   -0.111880
C      3.847354    4.300198   -0.557882
O      1.596033    3.794222   -0.027184
O     -0.013285    1.881229   -0.133041
C      0.878300   -0.674925   -1.019236
C      0.863294   -2.132681   -1.259931
N      0.680294   -3.002926   -0.166907
C      0.189755   -4.291657   -0.546434
O     -2.880261    2.983342   -0.301307
C     -4.240232    3.370914   -0.351423
H     -4.060130   -1.378471    0.685020
H     -4.666850    1.026817    0.173261
H     -1.831811   -3.006060   -0.025854
H     -2.053024   -2.747199    1.717663
H      0.142661   -3.254913    1.793912
H      0.241086   -0.864362    2.353545
H      0.446844    1.238717    1.806306
H      3.893372   -0.120565    0.807881
H      2.487854   -2.180375    0.805789
H      2.510024   -1.485735    2.437464
H      3.474441    5.335067   -0.656014
H      4.615977    4.312342    0.246087
H      4.241830    3.908305   -1.504324
H      0.152017   -0.215875   -1.762377
H      1.837120   -0.199666   -1.278550
H      1.848596   -2.414108   -1.742348
H      0.115473   -2.441436   -2.051825
H     -0.428520   -4.752732    0.266110
H     -0.410167   -4.223249   -1.473127
H      1.046271   -5.014550   -0.687197
H     -4.747651    2.823091   -1.187316
H     -4.790892    3.077996    0.569940
H     -4.355533    4.467279   -0.453744
