34

C      1.244266   -1.235039    0.199590
C      0.471181    0.058905    0.063987
C     -0.899187   -0.181500    0.724144
C     -1.645579   -1.293090    0.139521
C     -3.094528   -1.148743   -0.096490
C     -3.758384    0.076121    0.435073
C     -2.874778    1.236308    0.602743
C     -1.574316    1.127710    0.734603
C      1.208554    1.101876    0.830397
N      2.298395    1.803443    0.258843
C      2.430724    1.847722   -1.152324
S      3.684895    2.653051   -1.843580
N      1.451033    1.178719   -1.925939
C      0.363391    0.481618   -1.333475
O     -0.676738    0.247516   -2.045022
O      0.913449    1.423953    2.025963
C      2.595038   -1.174353   -0.396467
C      3.698206   -1.346234    0.317769
H      1.390830   -1.480787    1.295818
H      0.663664   -2.118009   -0.184133
H     -0.621869   -0.392844    1.801348
H     -1.168839   -1.612464   -0.810341
H     -1.482713   -2.206082    0.797859
H     -3.652711   -2.023280    0.305365
H     -3.332815   -1.179638   -1.204419
H     -4.228439   -0.113672    1.445035
H     -4.605305    0.392892   -0.210570
H     -3.334115    2.218034    0.617387
H     -0.989975    2.026242    0.852206
H      2.997190    2.284013    0.900731
H      1.512009    1.185482   -2.987743
H      2.700451   -0.990250   -1.452991
H      3.643212   -1.543762    1.399940
H      4.673805   -1.303857   -0.104829
