45

C     -1.744142   -2.348092   -0.088337
C     -1.797253   -3.381249   -0.992331
C     -0.860702   -3.489534   -2.000019
C      0.110090   -2.512763   -2.036571
C      0.173462   -1.487283   -1.149884
C     -0.770665   -1.372731   -0.131871
N     -0.914557   -0.384446    0.886612
C      0.163544    0.287561    1.584634
C      1.426554    0.785183    1.083887
C      2.266477   -0.141105    0.281137
S      1.564442   -0.374199   -1.406322
C      3.645552    0.302487    0.097833
C      4.677407   -0.506012    0.528243
C      6.003909   -0.110983    0.367650
C      6.318210    1.092045   -0.222565
C      5.306092    1.898593   -0.651464
C      4.008972    1.497595   -0.487108
O     -0.113583    0.430549    2.830344
C     -2.247083   -0.018292    1.230839
C     -2.716291    1.168368    0.335199
N     -4.074202    1.528631    0.700183
C     -4.460904    2.627029   -0.153812
C     -4.908871    0.385694    0.298794
H     -2.471900   -2.315561    0.690417
H     -2.589211   -4.143876   -0.931130
H     -0.873351   -4.287333   -2.726207
H      0.876773   -2.562453   -2.824507
H      1.357039    1.755691    0.539402
H      2.050485    1.049138    1.993721
H      2.239001   -1.133635    0.774525
H      4.483918   -1.461639    0.998610
H      6.835775   -0.727794    0.697219
H      7.352862    1.406945   -0.351205
H      5.525428    2.849428   -1.118743
H      3.233312    2.152219   -0.833990
H     -2.995687   -0.768590    1.044303
H     -2.305471    0.425747    2.257772
H     -1.997926    1.987469    0.391981
H     -2.757770    0.842681   -0.724780
H     -4.519607    2.229396   -1.189004
H     -5.441813    3.044454    0.107731
H     -3.664131    3.426879   -0.180309
H     -4.469311   -0.016069   -0.637175
H     -5.930108    0.734339    0.029079
H     -4.994763   -0.364480    1.087218
