34

C     -1.835061    2.570036    1.294002
C     -0.774915    1.853304    0.727500
C     -0.898609    0.561366    0.267005
C     -2.139152   -0.116724    0.344918
C     -3.151586    0.622622    0.909762
C     -3.022787    1.931449    1.377539
S     -4.518429   -0.406022    0.874709
C     -3.790512   -1.747579    0.143132
C     -2.474208   -1.366873   -0.065261
C     -1.641039   -2.410452   -0.803505
C      0.377447    0.205948   -0.191904
C      1.176513    1.305359    0.013409
C      2.635079    1.408634   -0.362021
C      2.891538    0.340755   -1.413712
N      2.470449   -0.869708   -0.789202
C      1.003504   -0.999304   -0.733795
C      3.086042   -1.152705    0.465775
N      0.482420    2.305261    0.571099
H     -1.672520    3.582464    1.635344
H     -3.894780    2.392895    1.796845
H     -4.271735   -2.719046   -0.106091
H     -0.992304   -2.931068   -0.108871
H     -2.321392   -3.258191   -1.165453
H     -1.290578   -2.016412   -1.744123
H      2.860303    2.385974   -0.828940
H      3.295341    1.297997    0.509392
H      2.261420    0.525027   -2.296629
H      3.949966    0.295993   -1.661819
H      0.889572   -1.876926   -0.036286
H      0.763120   -1.233925   -1.785442
H      4.036729   -0.602330    0.540214
H      2.372473   -0.885299    1.290519
H      3.293614   -2.262615    0.490922
H      0.844076    3.270093    0.840971
