28

C      2.408311   -0.683180   -1.311522
C      1.821118   -0.159311   -0.190130
O      0.473409    0.040581   -0.174430
C     -0.144723    0.578370    0.971130
C     -1.636367    0.708426    0.755819
O     -1.841651    1.567103   -0.345467
C     -3.052909    1.553406   -0.981461
N     -3.798971    0.365950   -1.007981
C     -3.533391   -0.704959   -0.097409
C     -2.207863   -0.657588    0.565909
S     -3.681686    2.877136   -1.723856
C      2.589487    0.154864    0.893403
C      3.932977   -0.050665    0.861737
C      4.534300   -0.581811   -0.273047
C      3.754145   -0.890931   -1.347995
H      1.804117   -0.932479   -2.169277
H      0.317965    1.565722    1.234587
H      0.098801   -0.090935    1.823861
H     -2.100842    1.188357    1.634033
H     -4.573891    0.233773   -1.699915
H     -4.329057   -0.705764    0.673660
H     -3.660041   -1.661661   -0.660385
H     -2.231390   -1.163447    1.553731
H     -1.487532   -1.250460   -0.058100
H      2.113366    0.567931    1.772778
H      4.564186    0.188373    1.703232
H      5.600965   -0.750285   -0.311702
H      4.267167   -1.306516   -2.220231
