45

H      0.000000    0.000000    0.000000
C     -1.562048    2.298361    0.101865
C     -1.576761    0.895528    0.132257
C     -0.504971    0.170473   -0.589568
C     -0.390342   -1.273913   -0.365586
N      0.457965   -1.662478    0.740923
C      0.031913   -1.266171    2.040872
C      0.809333   -3.055043    0.756804
C      0.135989   -2.077224   -1.526147
C      0.416346   -1.557841   -2.661772
C      0.254457   -0.122573   -2.955977
C     -0.767416    0.525408   -2.062702
C      0.808470    0.787559   -0.200111
O      2.005211    0.326759   -0.732373
C      3.232012    0.908074   -0.361177
C      3.547427    0.809250    1.090935
O      0.846205    1.727608    0.610540
C     -2.598188    0.323314    0.840170
C     -3.569095    1.074568    1.495515
C     -3.520239    2.443120    1.443401
C     -2.508945    3.058654    0.741210
Cl     0.000000    0.000000    0.000000
H     -0.782487    2.804671   -0.463329
H     -1.383522   -1.782315   -0.163243
H     -0.965628   -1.770510    2.219450
H      0.677282   -1.690772    2.849312
H     -0.146560   -0.189808    2.187395
H     -0.042308   -3.743238    0.621917
H      1.688900   -3.289420    0.121104
H      1.177183   -3.269459    1.805296
H      0.255395   -3.168338   -1.303828
H      0.794698   -2.192297   -3.466372
H      1.201063    0.420599   -2.994513
H     -0.169320   -0.057580   -4.001858
H     -1.807146    0.216940   -2.261752
H     -0.664410    1.618728   -2.168244
H      4.061822    0.445582   -0.936101
H      3.253273    2.004788   -0.628189
H      2.777323    1.189260    1.775357
H      3.790323   -0.219444    1.426983
H      4.460600    1.421335    1.276230
H     -2.634771   -0.759757    0.877206
H     -4.350178    0.532073    2.038173
H     -4.293550    3.015503    1.966110
H     -2.445304    4.130026    0.683816
