52

C     -4.474804    2.147152   -0.632979
C     -5.474685    3.049023   -0.925212
C     -6.780514    2.777625   -0.527310
C     -7.066309    1.612932    0.154371
C     -6.038030    0.737784    0.426784
C     -4.735524    0.977454    0.046533
N     -3.953335   -0.064654    0.456051
C     -2.531970   -0.115051    0.209012
C     -2.201845   -0.251233   -1.254085
C     -1.074886   -1.236493   -1.502710
N      0.012403   -0.863535   -0.618101
C      1.250968   -1.484569   -0.985738
C      2.332000   -1.054220   -0.033414
C      3.649473   -1.712484   -0.421071
C      4.717644   -1.293688    0.511569
C      5.655227   -0.217393    0.234466
C      6.637805    0.109012    1.163733
C      7.537886    1.123836    0.928052
C      7.520510    1.865549   -0.223583
F      8.417263    2.859306   -0.432250
C      6.557499    1.564601   -1.163490
C      5.645159    0.532888   -0.919535
O      4.812318   -1.907868    1.601120
C     -0.334332   -1.010690    0.768954
C     -1.842829   -1.216605    0.950622
C     -4.772716   -0.918128    1.073205
N     -6.042601   -0.441355    1.061897
S     -4.288771   -2.325831    1.736743
H     -3.441326    2.336282   -0.934343
H     -5.267689    3.960977   -1.455203
H     -7.548374    3.504200   -0.769838
H     -8.095219    1.447570    0.441421
H     -2.101198    0.846386    0.557525
H     -1.848747    0.719066   -1.704493
H     -3.132033   -0.517951   -1.782509
H     -0.727839   -1.067512   -2.536818
H     -1.386687   -2.284890   -1.397824
H      1.521704   -1.139918   -2.004071
H      1.200931   -2.580536   -1.019504
H      2.122567   -1.338833    1.009326
H      2.517165    0.043479   -0.095567
H      3.541815   -2.823115   -0.451021
H      3.881371   -1.402161   -1.445922
H      6.656275   -0.477252    2.081492
H      8.296479    1.359361    1.670915
H      6.539592    2.144993   -2.071242
H      4.901784    0.319725   -1.671136
H      0.173625   -1.886094    1.243607
H     -0.020638   -0.089091    1.299234
H     -2.045883   -2.226076    0.530856
H     -2.030103   -1.158896    2.045829
H     -6.840578   -0.933075    1.480450
