24

C      0.922576   -1.527805    0.153868
C      0.383309   -0.263591    0.064503
N     -0.950967    0.066500    0.491753
C     -1.475217   -0.067567    1.816683
S     -3.253375   -0.311804    1.580769
C     -3.192097   -0.294802   -0.263444
C     -1.965048    0.600623   -0.394933
N     -0.821955   -0.022728    2.901684
C      1.199136    0.715028   -0.470518
C      2.483548    0.438184   -0.891501
C      3.007790   -0.833292   -0.794775
C      2.204015   -1.825010   -0.261270
Cl     4.648178   -1.176288   -1.334878
N      0.640505    2.033069   -0.565047
H      0.284553   -2.305207    0.575083
H     -2.953344   -1.281017   -0.661199
H     -4.051796    0.209530   -0.681757
H     -1.605052    0.683995   -1.408272
H     -2.300898    1.609724   -0.046442
H      0.202919    0.122624    2.924871
H      3.107720    1.213987   -1.307099
H      2.615400   -2.835486   -0.182416
H      0.289220    2.562256    0.254858
H      0.580879    2.489077   -1.500519
