62

C      0.166153    0.373730   -0.833786
C      1.018287   -0.768680   -0.323446
C      2.282830    0.106161   -0.113119
O      1.853581    0.969300    0.962899
C      2.769721    1.913372    1.390899
O      3.922020    2.072813    0.918817
C      2.364926    2.824711    2.507542
C      2.327260    0.946175   -1.327120
C      0.934950    0.810652   -1.995235
C      3.405472    0.742849   -2.307895
C      3.442760   -0.637143    0.306559
S      4.368393   -1.812766   -0.655894
C      5.727945   -2.456715    0.342304
O      3.880653   -0.471594    1.459404
C      0.467557   -1.238854    0.971151
C     -1.022364   -1.472160    0.961241
O     -1.280466   -2.636144    0.313297
C     -1.706565   -0.237343    0.460318
F     -1.177639    0.807803    1.218133
C     -1.266027   -0.005852   -0.965303
C     -2.035714    1.015633   -1.710589
C     -3.498024    0.618819   -1.704671
C     -3.857844    0.724596   -0.226598
C     -4.708350    1.602875    0.164547
C     -5.105968    1.779251    1.580181
O     -5.925432    2.622480    1.956307
C     -4.454593    0.878137    2.504091
C     -3.591330   -0.010371    2.056856
C     -3.187023   -0.223445    0.680877
C     -3.685852   -1.657425    0.370615
C      1.259559   -1.822681   -1.342644
H      0.223895    1.174386   -0.039836
H      3.133787    3.567207    2.742552
H      1.450972    3.381999    2.203730
H      2.204745    2.230422    3.442343
H      2.346843    2.048657   -1.053782
H      0.576369    1.755376   -2.400018
H      1.000789    0.064432   -2.804115
H      3.035543    0.124143   -3.178393
H      4.351523    0.351852   -1.951032
H      3.680754    1.716562   -2.824293
H      5.385477   -2.876346    1.305457
H      6.415666   -1.603262    0.615376
H      6.363218   -3.164603   -0.224628
H      0.943420   -2.236275    1.203637
H      0.735720   -0.516769    1.780349
H     -1.301407   -1.664383    2.053647
H     -1.088466   -2.735551   -0.616368
H     -1.303055   -0.950595   -1.566760
H     -1.953447    2.021237   -1.238646
H     -1.641384    1.065288   -2.750972
H     -4.137288    1.234518   -2.324168
H     -3.638356   -0.442959   -1.987749
H     -5.185760    2.275910   -0.563455
H     -4.654329    0.904821    3.585705
H     -3.105719   -0.688701    2.831005
H     -4.793603   -1.677246    0.374648
H     -3.363322   -2.273396    1.224235
H     -3.348778   -2.037757   -0.575590
H      2.210695   -1.709339   -1.905730
H      0.486468   -1.889608   -2.138332
H      1.280158   -2.808206   -0.838551
