63

C      7.629768    0.667650    0.787671
C      7.446096   -0.422112   -0.085264
C      6.339577   -0.731415   -0.804489
N      6.405130   -1.829166   -1.568905
S      7.944831   -2.430477   -1.314201
C      8.517185   -1.261453   -0.212447
C      9.718928   -1.043526    0.486156
C      9.870126    0.042379    1.341686
C      8.796635    0.866024    1.456217
N      5.115182    0.037028   -0.800771
C      4.417785    0.247951    0.426631
C      3.046529   -0.422668    0.228878
N      2.438223    0.209225   -0.914575
C      1.066521   -0.116311   -1.134636
C      0.197055    0.481518   -0.065222
C     -1.268507    0.141340   -0.289395
C     -2.061525    0.790357    0.832176
N     -3.464188    0.516226    0.709685
C     -4.399663    1.308013   -0.008447
C     -5.771673    0.895786   -0.282652
C     -6.333645   -0.138370    0.621863
C     -5.404310   -1.023582    1.322237
C     -3.993080   -0.637264    1.346135
O     -3.196910   -1.381008    1.974959
C     -7.316169   -0.976116   -0.182976
C     -8.680654   -0.748730    0.367987
C     -8.600729    0.601762    1.014914
C     -7.225901    0.572048    1.643206
O     -4.014685    2.426920   -0.428236
C      3.178120   -0.014618   -2.148297
C      4.590179    0.575284   -2.018611
H      6.844259    1.395527    0.963212
H     10.500474   -1.769261    0.311685
H     10.814014    0.132878    1.830593
H      8.929965    1.724033    2.139431
H      4.176944    1.347026    0.530589
H      4.940970   -0.145049    1.313917
H      3.240163   -1.514119    0.023082
H      2.442292   -0.266316    1.113770
H      0.757036    0.265816   -2.137953
H      0.906873   -1.225483   -1.206405
H      0.271193    1.599672   -0.173941
H      0.527650    0.142012    0.915662
H     -1.617357    0.542801   -1.257060
H     -1.434136   -0.960621   -0.192113
H     -1.825070    1.871848    0.791294
H     -1.638968    0.423814    1.788683
H     -5.795020    0.524666   -1.349128
H     -6.408893    1.804650   -0.288601
H     -5.444336   -2.076092    0.914728
H     -5.715414   -1.158859    2.401261
H     -7.047597   -2.070947   -0.110770
H     -7.251672   -0.745225   -1.267725
H     -9.402727   -0.722054   -0.491139
H     -9.013816   -1.526591    1.089369
H     -9.336155    0.686698    1.846575
H     -8.749270    1.432931    0.308690
H     -7.281520    0.002307    2.590786
H     -6.857565    1.595322    1.843090
H      2.673522    0.572546   -2.936088
H      3.204193   -1.073266   -2.439539
H      5.164991    0.310782   -2.919034
H      4.438745    1.675858   -1.987400
