58

C     -1.563274   -0.369935    0.203001
C     -0.965484    0.965083   -0.134869
C      0.509307    0.906755    0.100313
C      1.119571   -0.136695   -0.767845
C      2.597565    0.091291   -0.469816
S      2.952750   -0.381171    1.218229
C      4.680796   -0.287833    1.633384
C      5.277837    1.079707    1.674616
S      3.674241   -0.720290   -1.676404
C      3.576074   -2.522311   -1.590911
C      2.661819    1.596246   -0.601909
C      1.284715    2.129184   -0.191727
C      0.908767    0.010394   -2.233226
C      0.644844   -1.469266   -0.267333
C     -0.856390   -1.544892   -0.334381
O     -1.183849   -1.904112   -1.640193
C     -1.545658    1.989738    0.813081
C     -3.054207    2.078684    0.743304
C     -3.642769    0.702251    0.626040
C     -4.695923    0.446463    1.333125
C     -5.357415   -0.848770    1.315062
O     -6.389712   -1.090918    2.010586
C     -4.764265   -1.852510    0.451391
C     -3.700113   -1.574091   -0.259227
C     -3.029204   -0.294592   -0.267765
C     -3.068568    0.336611   -1.665292
F     -1.628946   -0.459699    1.583567
H     -1.199865    1.337168   -1.146726
H      0.655854    0.568304    1.162364
H      4.824988   -0.836144    2.599794
H      5.281251   -0.883638    0.891089
H      5.650854    1.450433    0.701193
H      4.584666    1.850247    2.095598
H      6.199003    1.008096    2.327714
H      2.861439   -2.945607   -2.329759
H      3.314817   -2.896695   -0.595085
H      4.585976   -2.896772   -1.921565
H      2.876644    1.890421   -1.668832
H      3.453889    1.983398    0.026655
H      0.863718    2.791273   -0.957780
H      1.442247    2.695890    0.751920
H      0.722928   -1.024978   -2.647772
H      0.066843    0.620411   -2.550920
H      1.864943    0.312559   -2.757931
H      1.038645   -2.251370   -0.945358
H      1.023174   -1.576835    0.780783
H     -1.145024   -2.439927    0.296359
H     -1.123387   -2.887904   -1.780679
H     -1.272105    1.672472    1.840229
H     -1.130701    2.998119    0.581908
H     -3.439844    2.517418    1.682265
H     -3.329870    2.686627   -0.112438
H     -5.139312    1.197620    1.981434
H     -5.223258   -2.844755    0.406916
H     -3.311689   -2.416786   -0.896085
H     -4.033304   -0.035688   -2.115185
H     -3.161294    1.429844   -1.640660
H     -2.244736    0.051475   -2.305574
