70

C     -2.930323   -0.174197    0.025561
C     -2.123815    0.911387   -0.647420
C     -0.775778    0.785892   -0.047025
C     -0.068534   -0.552041   -0.246245
C      1.089200   -0.224053    0.753917
C      2.043493   -1.309751    0.814940
C      3.415527   -1.312221    0.204715
S      4.640964   -1.803466    1.437409
C      6.291783   -1.505669    0.931043
C      6.761693   -0.258305    0.325246
C      6.731890    0.815810    1.452628
C      8.221286   -0.458941   -0.083179
C      6.017780    0.331861   -0.815176
O      7.114776   -2.452233    1.099576
O      1.727258   -2.330077    1.425719
O      0.370818   -0.117771    1.981456
C      1.524444    1.079898    0.213474
C      0.285573    1.726895   -0.454705
C      0.514972   -0.772417   -1.574135
C     -0.936614   -1.624130    0.318527
C     -2.330821   -1.512520   -0.251006
O     -2.413795   -1.936826   -1.569429
C     -2.620760    2.286598   -0.320593
C     -4.057161    2.485093   -0.125956
C     -4.878338    1.253258    0.020100
C     -6.135493    1.454528    0.391875
C     -7.022421    0.324811    0.559568
O     -8.239884    0.391076    0.316871
C     -6.445236   -0.949618    1.036955
C     -5.035000   -1.163768    0.633492
C     -4.408166   -0.104431   -0.221120
C     -4.765595   -0.421927   -1.664739
H     -2.810024    0.012894    1.128409
H     -2.143872    0.787631   -1.737945
H     -0.904043    0.905530    1.065499
H      3.399650   -2.199078   -0.536335
H      3.637291   -0.460708   -0.403255
H      6.994827    0.329479    2.388671
H      5.677355    1.127770    1.520021
H      7.441087    1.595527    1.138050
H      8.580408   -1.492677    0.128408
H      8.862291    0.287419    0.448686
H      8.304407   -0.310680   -1.168818
H      5.671314   -0.389160   -1.573951
H      6.781136    0.976273   -1.371132
H      5.240437    1.069169   -0.488097
H      0.934646    0.377529    2.625261
H      1.885543    1.794751    1.000996
H      2.312884    1.036657   -0.533646
H      0.467998    1.839034   -1.539675
H      0.173401    2.772606   -0.069978
H      0.327618   -1.825923   -1.950070
H      0.141431   -0.056010   -2.355568
H      1.629076   -0.674186   -1.610861
H     -0.486305   -2.624188    0.220897
H     -1.054705   -1.363647    1.409227
H     -2.931499   -2.267448    0.343097
H     -2.252103   -1.218909   -2.229799
H     -2.083616    2.638620    0.612687
H     -2.267071    2.970110   -1.113352
H     -4.501658    3.040767   -0.998131
H     -4.285395    3.113620    0.774201
H     -6.529927    2.472420    0.562907
H     -7.074037   -1.771499    0.577550
H     -6.617370   -1.073136    2.138283
H     -4.428384   -1.311458    1.579201
H     -4.897795   -2.153756    0.088629
H     -4.702912   -1.534223   -1.813301
H     -5.848532   -0.169339   -1.788644
H     -4.207275    0.167004   -2.390465
