54

C     -0.509981    1.421787   -0.241531
C     -1.546243    2.286560   -0.002501
O     -1.300288    3.610831    0.270590
C     -0.013444    4.145372    0.320513
C     -2.835534    1.829582   -0.035378
C     -3.099122    0.473019   -0.315478
C     -2.086410   -0.394919   -0.553965
C     -0.773540    0.096040   -0.511091
C      0.450628   -0.660110   -0.713719
N      0.503135   -1.652801   -1.587565
N     -0.533095   -2.133461   -2.416949
C     -1.785541   -2.196793   -2.172234
C     -2.490403   -1.764363   -0.909723
C     -2.088890   -2.768647    0.162188
C     -2.707770   -2.473451    1.489584
C     -2.684386   -2.748223   -3.211636
C      1.627753   -0.313160    0.024741
C      1.636403    0.403940    1.180918
C      2.799760    0.779877    1.857827
C      4.012547    0.401688    1.326636
C      4.068697   -0.327862    0.158512
C      2.898675   -0.668574   -0.464144
O      5.308634   -0.691218   -0.345146
C      5.348963   -1.436265   -1.539176
O      5.207557    0.756532    1.971584
C      5.154755    1.506147    3.172150
O     -3.884514    2.679757    0.202341
C     -5.201675    2.175285    0.160612
H      0.518286    1.763539   -0.269814
H      0.572385    3.821557    1.205113
H      0.591443    3.834634   -0.571644
H     -0.105016    5.260707    0.273209
H     -4.121940    0.163489   -0.331256
H     -3.582251   -1.872051   -1.052583
H     -2.324005   -3.802559   -0.159695
H     -0.976679   -2.740133    0.296809
H     -2.849234   -3.465068    2.009057
H     -2.026180   -1.876245    2.131615
H     -3.667265   -1.954117    1.433608
H     -3.448418   -3.421170   -2.775578
H     -2.053385   -3.292522   -3.946479
H     -3.158781   -1.909494   -3.795393
H      0.687272    0.685119    1.666446
H      2.710960    1.346919    2.762933
H      2.899181   -1.241373   -1.384045
H      6.353657   -1.523913   -1.973088
H      4.713173   -0.924288   -2.287083
H      4.923147   -2.447740   -1.358472
H      4.462693    2.362141    3.068545
H      6.188593    1.885015    3.380048
H      4.821907    0.820823    3.984695
H     -5.870861    3.019369    0.444007
H     -5.320362    1.315223    0.851381
H     -5.414993    1.855566   -0.880294
