45

C     -3.685362    0.721766    0.019346
C     -5.000250    0.680811    0.413393
C     -5.619402   -0.521800    0.655213
C     -4.922420   -1.707047    0.503562
C     -3.596453   -1.631200    0.104523
C     -2.934475   -0.448415   -0.149027
N     -1.577890   -0.394503   -0.555110
C     -0.705753   -1.493152   -0.792012
C      0.524237   -1.305056    0.093070
N      1.161730   -0.051785   -0.137708
C      1.438029    0.623387    1.123706
C      2.498946   -0.168426    1.856450
C      3.750917   -0.239721    1.049157
N      4.890744   -0.879041    1.397811
N      5.801770   -0.736406    0.450958
C      5.320349   -0.002350   -0.566269
C      4.023917    0.310768   -0.186413
C      6.032452    0.378318   -1.811614
C      0.480428    0.831100   -1.054376
C     -0.998531    0.941172   -0.755329
C     -5.778293    1.926094    0.585611
H     -3.183854    1.654648   -0.174582
H     -6.660315   -0.606252    0.969565
H     -5.427776   -2.646368    0.698830
H     -3.052621   -2.571713   -0.012607
H     -0.317189   -1.359808   -1.847079
H     -1.139561   -2.479745   -0.639784
H      1.251246   -2.122354   -0.125324
H      0.218794   -1.437271    1.162530
H      1.871083    1.616037    0.855076
H      0.536842    0.762995    1.730530
H      2.676879    0.242479    2.873275
H      2.180396   -1.232018    2.004606
H      6.766899   -1.171249    0.546786
H      3.354584    0.896388   -0.782908
H      7.114689    0.608569   -1.613271
H      5.941336   -0.425982   -2.599588
H      5.604129    1.283676   -2.279265
H      0.651898    0.526878   -2.094410
H      0.912991    1.844812   -0.933766
H     -1.478334    1.340934   -1.673075
H     -1.169673    1.576917    0.125358
H     -6.182733    2.300292   -0.363451
H     -5.046335    2.711157    0.937709
H     -6.528066    1.852464    1.397218
