46

C     -0.122588   -2.410839   -1.541770
N     -1.102071   -3.325338   -1.549683
N     -2.156502   -2.752049   -1.046623
C     -1.917489   -1.477917   -0.699541
C     -0.574146   -1.222708   -1.016228
C     -0.037680    0.021351   -0.774035
C     -0.850158    0.981651   -0.225305
C     -2.160815    0.684337    0.068528
N     -2.675234   -0.528549   -0.168670
C     -3.063665    1.739454    0.676590
C     -0.330580    2.322722    0.010469
O     -1.053807    3.365568    0.565434
C     -0.522166    4.656841    0.782157
C     -0.059693    5.304953   -0.499468
O      0.861758    2.547352   -0.314370
N      1.338359    0.247435   -1.086355
C      2.441592    0.026180   -0.216779
C      2.655314   -1.417680    0.185861
C      3.840867   -1.525390    1.126825
C      5.116656   -1.041134    0.524145
C     -3.437709   -3.406074   -0.878927
C     -3.508405   -4.065277    0.477042
H      0.867611   -2.584933   -1.901707
H     -3.141433    2.591944   -0.024987
H     -2.661513    2.114287    1.637513
H     -4.061494    1.279033    0.846176
H     -1.338169    5.286376    1.193617
H      0.287109    4.657778    1.515027
H      1.044911    5.202742   -0.537306
H     -0.522263    4.837129   -1.395426
H     -0.334912    6.381158   -0.506175
H      1.493309    0.613703   -2.069986
H      2.381018    0.613091    0.730775
H      3.384244    0.327730   -0.760342
H      1.784923   -1.817155    0.733914
H      2.808361   -2.061052   -0.706982
H      3.955742   -2.630034    1.332102
H      3.580243   -1.062132    2.075226
H      5.219868   -1.387051   -0.506416
H      5.128122    0.081322    0.607141
H      5.954975   -1.460078    1.137280
H     -4.289320   -2.679477   -0.937736
H     -3.569353   -4.203395   -1.640421
H     -2.617289   -4.714755    0.613522
H     -3.640438   -3.361313    1.301074
H     -4.396088   -4.749809    0.444048
