60

C      2.160372   -0.517795   -0.084291
O      3.311817   -0.355298    0.687327
C      4.142371    0.527675    0.070661
O      3.490292    1.126694   -1.000011
C      2.205429    0.640207   -1.029569
C      1.180682    1.655591   -0.607844
C      0.198371    0.840930    0.185807
C      0.906680   -0.337015    0.756186
C      0.100571   -1.541644    1.000459
C     -1.340273   -1.539490    0.677053
Cl    -1.630128   -2.777456   -0.599793
C     -1.943114   -0.233275    0.305339
Cl    -2.024273    0.753821    1.812073
C     -1.028073    0.475178   -0.626693
C     -1.562451    1.729884   -1.215866
C     -3.009306    1.946409   -1.293993
F     -3.307439    3.293681   -1.038908
C     -3.857712    1.070128   -0.430030
C     -4.966967    1.508594    0.093083
C     -5.833408    0.701716    0.945997
O     -6.895635    1.154191    1.433710
C     -5.367674   -0.651751    1.180531
C     -4.229786   -1.079931    0.634721
C     -3.361749   -0.288933   -0.216926
C     -3.390406   -0.973863   -1.597351
C      1.415702    0.137393    2.134071
C      4.509089    1.635180    1.037912
C      5.435391   -0.137264   -0.378910
C      2.250935   -1.833002   -0.732903
O      1.436467   -2.130255   -1.587155
C      3.279969   -2.843207   -0.410846
F      4.308835   -2.915507   -1.328477
H      1.996031    0.266818   -2.062176
H      0.740813    2.076811   -1.532476
H      1.612007    2.484560   -0.019650
H     -0.197440    1.517149    0.997533
H      0.585133   -2.413338    0.479809
H      0.184999   -1.884457    2.095205
H     -1.908113   -1.935658    1.586823
H     -0.672797   -0.231762   -1.412702
H     -1.140164    1.808950   -2.264479
H     -1.101674    2.637061   -0.711984
H     -3.381610    1.788505   -2.340739
H     -5.249051    2.542770   -0.127435
H     -5.957057   -1.322126    1.806182
H     -3.974360   -2.139184    0.887442
H     -2.457646   -0.873913   -2.145076
H     -4.160446   -0.420948   -2.215980
H     -3.816054   -1.997816   -1.534178
H      0.722853   -0.236095    2.942596
H      1.425083    1.230569    2.220563
H      2.398538   -0.266246    2.370155
H      5.452937    1.309857    1.563189
H      4.701414    2.600541    0.480773
H      3.720368    1.779916    1.792325
H      5.364913   -0.441736   -1.451902
H      5.595445   -1.031818    0.238868
H      6.280331    0.571004   -0.229664
H      2.856957   -3.874749   -0.340599
H      3.794006   -2.586250    0.567353
