87

C     -0.857376   -1.047051   -0.000155
C     -1.853221   -0.184373    0.785700
C     -3.109512   -0.849621    0.197156
C     -4.382597   -0.228176    0.691424
C     -4.374765    1.174047    0.110327
C     -5.676073    1.810619    0.510907
C     -6.711863    1.083154   -0.268101
C     -7.582193    1.657549   -1.062186
C     -7.560559    3.101643   -1.212902
O     -8.401358    3.658794   -1.980721
C     -6.568601    3.845875   -0.470853
C     -5.703160    3.255957    0.320882
C     -6.766008   -0.382672   -0.130119
C     -5.508139   -1.053707    0.205189
C     -5.999861    1.453212    1.975364
F     -4.380463    1.019775   -1.278680
C     -3.165524    1.952886    0.481260
C     -1.877738    1.225678    0.350374
O     -3.289886    2.623271    1.705324
C     -2.871309   -2.264484    0.558201
C     -1.355467   -2.406613    0.338118
O     -1.134005   -3.143964   -0.823286
C     -1.131846   -2.243221   -1.884113
O     -1.219437   -0.965241   -1.363678
C     -2.286243   -2.609706   -2.798152
C      0.125119   -2.403547   -2.730410
C     -1.726106   -0.443913    2.240979
C      0.535688   -0.748880    0.233818
C      1.279769   -0.782689    1.492995
O      2.667388   -0.471709    1.286017
C      3.462538   -1.246199    0.470380
C      4.892519   -0.912891    0.265210
C      5.075098    0.451160   -0.324016
N      6.498599    0.704883   -0.498226
C      7.445510    0.737287    0.541142
C      8.865765    0.993098    0.306937
C      9.403488    1.262486   -0.926320
C     10.768298    1.497417   -1.087656
C     11.613749    1.464006   -0.004214
C     11.080799    1.193411    1.241864
C      9.736029    0.963636    1.389802
O      7.038166    0.534748    1.724710
C      5.484162   -1.901927   -0.743822
O      2.958883   -2.240915   -0.098461
O      1.197625   -0.419394   -0.770902
H     -3.052994   -0.612364   -0.883214
H     -4.383816   -0.173980    1.780114
H     -8.330736    1.109295   -1.623280
H     -6.573904    4.940210   -0.602775
H     -4.987624    3.908005    0.846279
H     -7.195986   -0.792289   -1.067352
H     -7.561352   -0.584045    0.648474
H     -5.719394   -1.824714    1.006805
H     -5.184992   -1.696400   -0.667858
H     -6.346977    0.400801    2.005955
H     -5.177970    1.652075    2.655875
H     -6.879768    2.075986    2.262769
H     -3.119848    2.806466   -0.267453
H     -1.088485    1.852616    0.843335
H     -1.582915    1.241256   -0.740878
H     -2.855127    2.201196    2.454355
H     -3.098249   -2.412431    1.629425
H     -3.420437   -2.996290   -0.070207
H     -0.885897   -2.903253    1.181872
H     -2.916698   -3.417736   -2.370756
H     -1.954992   -2.979994   -3.791072
H     -2.945032   -1.745445   -2.988691
H      0.454556   -1.452133   -3.188628
H      0.910156   -2.801508   -2.074960
H     -0.059909   -3.086735   -3.590996
H     -2.682891   -0.766001    2.722052
H     -1.298528    0.441331    2.749781
H     -1.027643   -1.286913    2.417982
H      1.284023   -1.758974    2.008644
H      0.944758    0.047600    2.182694
H      5.416719   -0.988808    1.216443
H      4.575202    0.475695   -1.293005
H      4.621692    1.254270    0.305798
H      6.869565    0.881175   -1.480785
H      8.776600    1.297348   -1.793832
H     11.174923    1.710726   -2.083782
H     12.663626    1.649016   -0.157587
H     11.779655    1.174983    2.076788
H      9.343770    0.752018    2.388488
H      6.397721   -1.415854   -1.142950
H      4.782520   -2.015662   -1.587729
H      5.700794   -2.874241   -0.276131
