57

N      2.766010   -2.956668    0.858271
C      3.346695   -1.720011    0.468193
O      4.594200   -1.648025    0.535978
C      2.575257   -0.554858    0.001979
C      1.738490   -0.973758   -1.180479
C      0.258043   -0.949043   -0.937508
N     -0.167539   -1.550996    0.269556
C     -1.575264   -1.170379    0.475761
C     -2.489799   -1.784853   -0.520542
C     -3.902315   -1.366562   -0.250498
C     -4.135910    0.082306   -0.360818
O     -3.231071    0.861335   -0.722361
C     -5.455024    0.668368   -0.046381
C     -6.508637   -0.122953    0.363507
C     -7.749592    0.399195    0.661808
C     -7.964014    1.766450    0.551213
F     -9.158849    2.331050    0.830560
C     -6.910744    2.569840    0.139889
C     -5.679967    2.020341   -0.152004
C      0.561519   -1.052427    1.428275
C      1.607614   -0.058889    1.061874
N      3.453308    0.525141   -0.271034
C      4.127251    0.961046    0.898521
C      5.556821    1.394826    0.664592
C      5.721537    2.305705   -0.512574
C      4.886860    1.808598   -1.643934
C      4.334256    0.398751   -1.365742
H      2.210505   -3.456918    0.110925
H      2.838601   -3.393869    1.780968
H      1.898569   -0.313859   -2.070733
H      2.022384   -1.992264   -1.515845
H     -0.116886    0.086063   -1.030718
H     -0.193778   -1.531393   -1.792291
H     -1.675654   -0.085669    0.606606
H     -1.839879   -1.606078    1.488472
H     -2.367109   -2.870363   -0.624871
H     -2.189155   -1.367972   -1.529006
H     -4.622620   -1.950705   -0.897169
H     -4.214123   -1.674000    0.792827
H     -6.342964   -1.199589    0.451635
H     -8.585449   -0.196310    0.983294
H     -7.090978    3.648508    0.056431
H     -4.853168    2.648075   -0.474679
H      0.948539   -1.930470    1.983810
H     -0.115187   -0.538344    2.160582
H      1.087306    0.821523    0.609231
H      2.102782    0.289439    1.974258
H      3.570653    1.854519    1.273727
H      4.138131    0.260924    1.754263
H      5.868152    1.910884    1.620659
H      6.244554    0.539871    0.571611
H      6.800801    2.371253   -0.756613
H      5.405234    3.326550   -0.194292
H      5.369115    1.847067   -2.634499
H      3.971057    2.458980   -1.704413
H      3.897218    0.078074   -2.310751
H      5.234212   -0.217456   -1.191165
