9

Br     1.813003    0.258010   -1.366235
C      0.756204   -0.477825    0.048000
C     -0.672105    0.023649    0.028746
O     -0.736484    1.405145    0.163306
Br    -1.748603   -0.892510    1.349625
Br    -1.477083   -0.384277   -1.707568
H      1.179635   -0.160237    1.034525
H      0.786538   -1.582673   -0.040093
H      0.098895    1.810719    0.489693
