14

O     -1.213684   -1.857960    0.909761
P     -1.515121   -0.530529    0.229564
O     -2.806927   -0.681031   -0.834550
O     -0.131152    0.008625   -0.593695
C      0.920890   -0.026054    0.319172
C      2.218686    0.437954   -0.309056
Cl     2.092658    2.103918   -0.907415
Cl     2.767480   -0.662843   -1.575865
Cl     3.451223    0.427446    0.980403
O     -1.936684    0.559897    1.453855
H     -3.611627   -0.851749   -0.305345
H      0.988354   -1.071403    0.680727
H      0.661772    0.673141    1.131591
H     -1.885869    1.470589    1.117942
