39

C     -2.010002    1.552377    1.324220
C     -1.690843    2.756150    1.909562
Cl    -2.894748    3.672212    2.779334
C     -0.415038    3.261736    1.813196
C      0.573071    2.551324    1.117269
C      0.253120    1.352054    0.536002
C     -1.024882    0.862167    0.636480
C     -1.552222   -0.365192    0.122250
N     -0.836777   -1.493975    0.135665
C      0.526498   -1.679516    0.630483
C      1.448387   -0.684825    0.003234
N      1.372327    0.637415   -0.063954
N      2.592843   -1.201275   -0.622995
O      3.732131   -0.453490   -0.689272
C      4.788163   -1.325856   -0.433060
C      6.098519   -0.615336   -0.478936
C      6.105411    0.672773   -0.739768
C     -2.913807   -0.500328   -0.329885
C     -3.444356   -1.810825   -0.427061
C     -4.668267   -2.080490   -0.972681
C     -5.473975   -1.082003   -1.469201
C     -4.990417    0.199683   -1.395169
C     -3.722272    0.462904   -0.831863
Cl    -3.149713    2.122763   -1.075220
H     -2.978254    1.130027    1.424070
H     -0.143202    4.195741    2.258515
H      1.569843    2.941005    1.039908
H      0.907784   -2.669814    0.416303
H      0.480986   -1.535365    1.724169
H      2.566493   -2.174748   -1.043603
H      4.844797   -2.158170   -1.157569
H      4.682205   -1.809083    0.573090
H      7.040199   -1.148332   -0.300163
H      5.189398    1.199697   -0.915385
H      7.047939    1.194817   -0.775005
H     -2.810120   -2.615274   -0.032683
H     -5.049848   -3.091085   -1.034603
H     -6.445999   -1.271326   -1.902228
H     -5.605372    1.001462   -1.779033
