40

Cl    -2.661053    4.130591    0.577965
C     -1.266972    3.120290    0.275926
C      0.015923    3.592154    0.542558
C      1.076746    2.775119    0.295595
C      0.856567    1.509412   -0.205780
N      2.046445    0.765481   -0.498213
C      3.105397    0.903689    0.419006
C      3.044647   -0.131466    1.578503
C      3.085499   -1.593896    1.264344
C      1.865814   -0.926018    1.829119
C      2.161914   -0.085973   -1.666571
O      3.365438   -0.432357   -1.906636
C      1.093263   -0.554243   -2.542395
N     -0.164500   -0.887438   -1.897200
C     -0.832507   -0.265245   -0.975339
C     -2.054477   -0.845234   -0.524352
C     -2.530401   -1.969282   -1.247420
C     -3.622880   -2.697603   -0.866408
C     -4.315074   -2.348904    0.267602
C     -3.873341   -1.270783    0.979614
C     -2.756196   -0.512773    0.607300
C     -0.440274    1.030760   -0.471386
C     -1.511139    1.862284   -0.225467
H      0.213948    4.573726    0.936928
H      2.109167    3.041044    0.445722
H      4.108454    0.818248   -0.073249
H      3.023974    1.804611    1.024230
H      3.677081    0.109514    2.476710
H      3.650789   -2.286221    1.959757
H      3.105161   -2.008376    0.264138
H      0.929686   -0.895747    1.235574
H      1.618368   -1.209621    2.877108
H      1.457428   -1.475483   -3.070190
H      0.859148    0.185224   -3.342690
H     -1.959203   -2.222032   -2.149005
H     -3.950513   -3.549389   -1.449962
H     -5.194682   -2.901218    0.609854
H     -4.404425   -0.965239    1.891666
H     -2.419545    0.287998    1.236988
H     -2.513674    1.524393   -0.483945
