47

C      3.893424   -1.230522    0.426195
N      4.220452   -1.847467   -0.829215
C      2.454624   -0.882846    0.444358
O      1.677506   -1.167192   -0.644070
C      0.318938   -0.907104   -0.785430
C     -0.036056    0.546750   -0.676696
O     -1.382691    0.738734   -0.823718
C     -2.006979    1.346444    0.241145
N     -3.421067    1.464163   -0.096435
C     -4.382168    0.572694    0.155784
C     -5.555648    1.102681   -0.338676
N     -5.300475    2.302684   -0.883245
C     -3.980459    2.515983   -0.728369
C     -6.699612    0.339465   -0.186169
O     -7.775248    0.819970   -0.636773
N     -6.661241   -0.858640    0.415399
C     -5.496225   -1.362167    0.895071
N     -4.353073   -0.629730    0.757665
N     -5.470394   -2.626981    1.527251
C      0.735421    1.389533   -1.683086
O      0.418918    1.082592   -2.986945
O      1.904494   -0.327596    1.433685
C      4.777617   -0.012773    0.584110
C      4.526348    0.719376    1.866352
C      6.212247   -0.492052    0.582313
H      4.157414   -1.957344    1.227041
H      3.782443   -1.254832   -1.586816
H      3.768544   -2.784786   -0.925052
H     -0.322880   -1.460776   -0.075944
H      0.015060   -1.240840   -1.809402
H      0.250272    0.952603    0.330291
H     -1.891558    0.687734    1.124554
H     -1.645557    2.377981    0.433027
H     -3.430026    3.404245   -1.060074
H     -3.452061   -0.995524    1.116935
H     -4.855047   -2.793312    2.343438
H     -6.063181   -3.405556    1.187257
H      1.821393    1.371433   -1.476588
H      0.413099    2.446468   -1.491564
H      0.989509    0.420410   -3.413934
H      4.655514    0.650787   -0.292951
H      5.466312    1.268289    2.166967
H      3.791792    1.528312    1.645918
H      4.225590    0.074136    2.696611
H      6.921055    0.348524    0.450615
H      6.424338   -0.958730    1.550143
H      6.359324   -1.275222   -0.209590
