44

C     -2.749075    0.659802    0.216267
C     -2.491051   -0.733159   -0.274957
C     -1.047558   -1.018503   -0.533027
O     -0.409022   -0.323705   -1.471741
C      0.798859   -0.185636   -2.053314
O      1.930133    0.215599   -1.437223
C      2.676942   -0.296641   -0.466999
C      3.917495    0.350858    0.082479
C      4.515481   -0.486571    1.161281
C      3.639072    1.723364    0.609686
C      4.868403    0.501897   -1.105988
O      2.375126   -1.387419    0.060894
O     -0.420244   -1.885954    0.101418
C     -3.171277   -1.778643    0.501890
C     -2.885888   -1.941331    1.935365
C     -3.169984   -0.802600    2.841548
C     -2.293868    1.733639   -0.778748
C     -2.989485    1.611064   -2.103175
H     -2.235740    0.909272    1.165627
H     -3.842260    0.845353    0.316010
H     -2.969334   -0.767390   -1.305403
H      1.007739   -1.136729   -2.709324
H      0.640271    0.557212   -2.929058
H      4.492115   -0.023499    2.151246
H      5.578444   -0.693897    0.913023
H      3.981363   -1.457529    1.195617
H      3.540730    2.486776   -0.205562
H      4.488859    1.989124    1.298475
H      2.728581    1.771448    1.230619
H      4.312401    1.061257   -1.882941
H      5.083976   -0.556146   -1.436716
H      5.782419    1.024009   -0.774561
H     -4.277322   -1.620463    0.391782
H     -2.990166   -2.757021    0.001923
H     -1.847040   -2.294244    2.159267
H     -3.514721   -2.821176    2.278135
H     -3.606847   -1.224679    3.801059
H     -3.946683   -0.096808    2.498264
H     -2.233489   -0.316082    3.193537
H     -2.592676    2.701840   -0.310596
H     -1.218478    1.766577   -0.924029
H     -2.332218    1.097112   -2.860792
H     -3.894043    0.992443   -2.012921
H     -3.229940    2.607179   -2.528339
