47

C      2.156606   -0.585386   -0.763422
C      3.397159   -0.828451   -0.244723
C      3.704849   -0.395724    1.014521
C      2.735577    0.280112    1.724337
C      1.465044    0.525933    1.186339
C      1.162206    0.091026   -0.074578
C     -0.193100    0.357638   -0.717374
C     -1.148276   -0.689311   -0.272231
C     -2.518343   -0.557456   -0.842906
C     -3.559240   -1.220965    0.052956
C     -2.994002   -2.559330    0.459819
C     -1.896214   -2.294041    1.437787
C     -1.212410   -0.934382    1.214180
O     -0.609147   -1.917637   -0.787813
C     -0.486899    1.770030   -0.459246
N     -1.669805    2.362233   -0.980927
C     -1.686683    3.744456   -0.434867
C     -1.572735    2.583307   -2.429783
O      4.927174   -0.587746    1.633346
C      6.014168   -1.255350    1.042270
H      1.954771   -0.944777   -1.762541
H      4.170352   -1.356971   -0.785296
H      2.952077    0.633995    2.723848
H      0.778507    1.053987    1.815119
H      0.002558    0.177273   -1.819311
H     -2.843255    0.444238   -1.138713
H     -2.571157   -1.165554   -1.802669
H     -4.495778   -1.312860   -0.537033
H     -3.661505   -0.602752    0.957315
H     -3.802947   -3.190155    0.901205
H     -2.608335   -3.055361   -0.463436
H     -1.190465   -3.125530    1.459589
H     -2.378854   -2.203999    2.448422
H     -1.692496   -0.146020    1.789922
H     -0.157674   -1.132693    1.561533
H      0.207031   -2.120089   -0.257179
H      0.437733    2.360960   -0.747967
H     -0.539961    1.937285    0.659182
H     -1.317019    3.730559    0.619672
H     -0.923825    4.310244   -1.012003
H     -2.674565    4.199929   -0.540143
H     -2.586077    2.544196   -2.870001
H     -1.141901    3.573546   -2.674182
H     -0.918744    1.833040   -2.915336
H      5.867178   -2.350041    0.960534
H      6.206125   -0.889311   -0.001500
H      6.912296   -1.092096    1.673283
