11

C      0.969758   -0.947024    0.391919
C      1.750008    0.097390    0.466231
O     -0.119118   -1.051603   -0.442914
C     -0.891001    0.037843   -0.838844
C     -1.855598    0.525269   -0.127799
H      1.197647   -1.785796    1.031734
H      2.577373    0.131343    1.125159
H      1.593707    0.994951   -0.146753
H     -0.645484    0.473922   -1.792607
H     -2.407852    1.372481   -0.504547
H     -2.169440    0.151225    0.838420
