81

C     -3.573364   -1.696471   -0.608984
O     -3.787895   -0.842621    0.499896
C     -5.010406   -0.147611    0.505098
C     -5.587837    0.259641    1.690079
C     -6.774276    0.933771    1.691239
C     -7.383251    1.197388    0.458532
C     -6.820527    0.798059   -0.733492
C     -5.610145    0.111968   -0.709851
C     -5.030825   -0.304449   -2.016387
C     -3.622240   -0.817856   -1.837542
C     -7.493337    1.092519   -2.048691
O     -8.588084    1.883762    0.486986
C     -7.405049    1.377332    2.970204
C     -4.890351   -0.051151    2.961780
C     -2.282667   -2.454770   -0.500655
C     -1.113051   -1.490731   -0.428573
C      0.196824   -2.247076   -0.318777
C      1.374565   -1.302302   -0.243937
C      1.479518   -0.426267   -1.446511
C      2.645018    0.506130   -1.360963
C      3.966797   -0.221504   -1.247287
C      5.077231    0.828014   -1.175650
C      6.448713    0.182883   -1.065021
C      6.611181   -0.659509    0.147095
C      6.507544    0.009524    1.465419
C      7.525072    1.024883    1.810723
C      7.177409    1.550904    3.219768
C      7.665841    2.217087    0.938752
C      5.012405    1.737577   -2.363715
C      1.297301   -0.513178    1.034079
C     -4.711515   -2.697988   -0.734861
H     -4.974648    0.611215   -2.648902
H     -5.680219   -1.034342   -2.540541
H     -2.939451    0.056627   -1.694275
H     -3.354106   -1.402465   -2.753942
H     -8.573743    0.795088   -1.907277
H     -7.109891    0.394144   -2.820702
H     -7.395238    2.150000   -2.320210
H     -9.038605    2.081050   -0.393723
H     -7.098562    2.411019    3.145202
H     -8.498552    1.308711    2.883112
H     -7.072935    0.718187    3.799802
H     -3.857833   -0.400972    2.790842
H     -5.469789   -0.707764    3.627035
H     -4.786567    0.934234    3.502520
H     -2.125388   -3.079389   -1.402415
H     -2.274161   -3.117660    0.364280
H     -1.107392   -0.910677   -1.366735
H     -1.218301   -0.877767    0.471596
H      0.228950   -2.890135    0.575368
H      0.367110   -2.898182   -1.199251
H      2.283001   -1.952331   -0.200819
H      0.575714    0.204923   -1.596733
H      1.541328   -1.073839   -2.352476
H      2.496922    1.223589   -0.537679
H      2.729445    1.144055   -2.287743
H      3.944747   -0.822470   -0.322198
H      4.146246   -0.882234   -2.106416
H      4.835800    1.416794   -0.265774
H      6.475984   -0.541472   -1.942911
H      7.253508    0.890491   -1.282580
H      7.556717   -1.257814    0.110465
H      5.800342   -1.443036    0.120108
H      6.567388   -0.817659    2.239555
H      5.489768    0.439686    1.639734
H      8.549230    0.575121    1.962226
H      7.524676    2.598101    3.326836
H      7.545692    0.880143    4.001093
H      6.069078    1.568289    3.267333
H      8.560019    2.131465    0.245769
H      7.951249    3.144085    1.545858
H      6.751586    2.538317    0.415413
H      4.838324    1.191681   -3.321837
H      6.018316    2.224469   -2.475464
H      4.296568    2.574431   -2.233604
H      0.604753   -0.984199    1.768907
H      0.923694    0.516478    0.830494
H      2.305583   -0.497343    1.519543
H     -4.410197   -3.684785   -0.276160
H     -5.600264   -2.369210   -0.160901
H     -4.946491   -2.914605   -1.797994
