50

C     -4.582353    0.661452    0.202274
C     -5.957018    0.611891    0.040996
C     -6.708982    1.834398   -0.323778
F     -7.374833    1.584400   -1.501985
F     -7.534615    2.215199    0.693391
F     -5.808836    2.871563   -0.566334
C     -6.639742   -0.561294    0.212252
C     -5.904752   -1.675925    0.548839
C     -4.536934   -1.627425    0.709844
C     -3.834989   -0.444282    0.537926
C     -2.410067   -0.380293    0.725447
C     -1.749101    0.783733    0.650608
C     -0.293651    0.810541    0.849288
N      0.404746   -0.234029    0.142365
C     -0.256712   -1.499283    0.193589
C     -1.528795   -1.543931    1.004002
C      0.466379    0.173994   -1.258997
C      1.454297   -0.701584   -1.965040
C      2.782464   -0.524711   -1.245800
C      3.586471    0.571339   -1.476775
C      4.780768    0.755362   -0.813265
C      5.577070    1.874432   -1.040466
C      6.763108    2.097348   -0.385612
C      7.159793    1.134840    0.547638
C      6.377540    0.018697    0.784173
C      5.195870   -0.171117    0.108971
C      4.399112   -1.280966    0.351276
C      3.194181   -1.455427   -0.327245
H     -4.144090    1.638221    0.039564
H     -7.721313   -0.606574    0.080440
H     -6.479039   -2.608044    0.684921
H     -4.041223   -2.550047    0.977685
H     -2.250148    1.711165    0.450024
H      0.093885    1.791601    0.516860
H     -0.057284    0.706775    1.923821
H     -0.489804   -1.890443   -0.808718
H      0.425768   -2.220050    0.685856
H     -1.305444   -1.567178    2.096504
H     -2.009972   -2.516483    0.764171
H     -0.550971   -0.050385   -1.686828
H      0.638016    1.250813   -1.398312
H      1.604833   -0.383736   -3.002360
H      1.140045   -1.743546   -1.914625
H      3.288497    1.305728   -2.190784
H      5.239375    2.585428   -1.761211
H      7.401772    2.957946   -0.539890
H      8.100646    1.321726    1.061737
H      6.733617   -0.689808    1.519863
H      4.740492   -1.995322    1.069557
H      2.621922   -2.346709   -0.102118
