36

C      3.075406    0.152000    1.231008
C      4.388661   -0.019537    0.862529
C      4.712541   -0.285323   -0.447835
C      3.701220   -0.375379   -1.362155
C      2.364096   -0.198901   -0.963564
C      2.015774    0.068232    0.315775
C      0.679503    0.070068    0.815389
N      0.447052   -0.087741    2.098386
C     -0.825859   -0.125979    2.789739
C     -1.806976   -1.028380    2.090197
N     -2.226497   -1.033428    0.699483
C     -1.649775   -0.107280   -0.229174
C     -0.359504    0.444182   -0.149990
C     -0.293821    1.369888   -1.153523
N     -1.473351    1.357904   -1.797144
N     -2.314622    0.456186   -1.240628
C     -3.664940    0.110715   -1.594890
C      0.888374    2.277324   -1.332655
C     -3.196724   -1.897243    0.184704
O     -2.349792   -1.901145    2.776018
F      1.438076   -0.448852   -1.915906
H      2.827177    0.360664    2.262249
H      5.206389    0.044198    1.563752
H      5.771956   -0.418821   -0.729825
H      3.927799   -0.580836   -2.385193
H     -1.303072    0.871450    2.828440
H     -0.684498   -0.522576    3.807759
H     -3.878308    0.770834   -2.501580
H     -3.821452   -0.873643   -2.029317
H     -4.428977    0.496186   -0.901491
H      1.412773    2.170726   -2.268468
H      0.400502    3.305806   -1.391115
H      1.490966    2.360844   -0.409696
H     -4.256184   -1.541081    0.186700
H     -3.299737   -2.721022    0.973608
H     -2.914178   -2.520042   -0.681586
