37

C      1.380745    1.216149    0.685786
C      1.962277    1.476288   -0.675282
C      1.678423    2.939873   -0.943548
C      1.454165    3.453187    0.467002
O      0.849322    2.423712    1.148942
C      0.287226    0.176873    0.662155
C     -0.802994    0.705974   -0.240206
C     -1.946538   -0.222650   -0.355039
C     -2.072323   -1.213531   -1.285821
C     -3.168821   -2.034480   -1.325601
C     -4.200026   -1.898676   -0.425034
C     -4.097936   -0.902136    0.529630
C     -2.986584   -0.081534    0.557975
N      0.813342   -1.047394    0.185635
C      1.826920   -1.630988    0.992426
C      2.306420   -2.968220    0.444354
H      2.173228    0.883442    1.379930
H      3.077676    1.345019   -0.689059
H      1.579680    0.807120   -1.466372
H      2.525079    3.449641   -1.409900
H      0.759406    3.053609   -1.534672
H      0.780683    4.329095    0.483013
H      2.442862    3.640414    0.926683
H     -0.135474    0.113066    1.695428
H     -0.445422    0.905464   -1.270319
H     -1.190156    1.669197    0.154214
H     -1.279156   -1.347530   -2.009987
H     -3.284715   -2.831325   -2.063538
H     -5.086227   -2.527940   -0.421993
H     -4.877138   -0.761260    1.249887
H     -2.963260    0.690101    1.337002
H      0.960742   -1.112215   -0.822561
H      1.561149   -1.786884    2.037828
H      2.738616   -0.970908    0.944226
H      1.713603   -3.820111    0.888927
H      2.327270   -2.996904   -0.647926
H      3.337936   -3.123538    0.815816
