45

C     -2.370995    3.851129   -0.475485
C     -1.846269    2.625147   -0.101240
C     -0.520861    2.241065   -0.353665
C      0.218893    3.175817   -1.003297
C     -0.277886    4.390592   -1.381629
C     -1.575956    4.754106   -1.127931
S      1.903117    2.855992   -1.412705
C      2.239261    1.196927   -0.815627
C      1.265470    0.487014   -0.183267
N     -0.055751    0.950420    0.053413
C     -0.963027    0.055637    0.711398
C     -1.554002   -1.027377   -0.178207
C     -2.337417   -0.437110   -1.333790
N     -2.364466   -1.860501    0.654981
C     -3.475234   -1.256999    1.292187
C     -1.618839   -2.651939    1.599390
C      1.653179   -0.792947    0.249250
C      2.922017   -1.280690    0.042509
C      3.868877   -0.518683   -0.604646
C      3.502885    0.735967   -1.032266
C      3.276108   -2.611544    0.507462
O      2.398248   -3.313405    1.105520
C      4.641247   -3.148902    0.290003
H     -3.405346    4.101667   -0.256811
H     -2.512307    1.944608    0.397342
H      0.328873    5.125524   -1.900991
H     -1.993701    5.705996   -1.413525
H     -1.750871    0.574904    1.277117
H     -0.469262   -0.547581    1.535359
H     -0.797255   -1.676592   -0.654394
H     -2.627343   -1.283916   -1.989931
H     -3.261602    0.069045   -1.028839
H     -1.650345    0.186220   -1.931524
H     -3.166559   -0.626543    2.177079
H     -4.111247   -0.618468    0.683285
H     -4.156490   -2.026465    1.740815
H     -1.389215   -2.061939    2.519876
H     -0.693333   -3.092349    1.177834
H     -2.262093   -3.497303    1.992430
H      0.963049   -1.432068    0.768681
H      4.876001   -0.871140   -0.784705
H      4.232092    1.378281   -1.554840
H      5.362084   -2.373767    0.670528
H      4.741295   -4.089911    0.867306
H      4.814978   -3.307918   -0.794452
