43

C     -1.140713    0.895833   -1.531667
C     -0.488182    1.883690   -2.292130
C      0.893880    1.908242   -2.394349
C      1.692839    0.981821   -1.766188
C      1.081009    0.013262   -1.013851
C     -0.309646    0.008334   -0.927770
N     -1.035772   -0.999346   -0.216418
C     -0.678666   -2.326841   -0.127351
N     -1.611517   -2.908231    0.584421
N     -2.517674   -1.980600    0.931225
C     -2.160483   -0.756949    0.428176
C     -2.839572    0.508327    0.641857
N     -4.226254    0.552701    0.209238
C     -4.992983   -0.435812    0.916179
C     -4.810704    1.852782    0.477041
C      0.537731   -2.947133   -0.682971
N      1.739924   -2.197389   -0.287796
C      2.016943   -0.917062   -0.407604
C      3.306564   -0.418373    0.031007
C      4.289983   -1.351707    0.404971
C      5.497269   -1.025726    0.949022
C      5.810096    0.293210    1.161386
C      4.874348    1.228369    0.810018
C      3.650639    0.881486    0.259086
Cl     1.697655    3.135380   -3.333582
H     -2.188107    0.801937   -1.483482
H     -1.120921    2.599643   -2.775834
H      2.766406    0.927570   -1.872537
H     -3.023035    0.490541    1.792216
H     -2.286017    1.439541    0.604712
H     -4.886836   -0.349234    2.014504
H     -6.083786   -0.246144    0.704278
H     -4.814682   -1.475437    0.549668
H     -5.708571    1.779148    1.126315
H     -4.074998    2.560805    0.905687
H     -5.148726    2.284457   -0.496230
H      0.439528   -3.050416   -1.769838
H      0.661189   -3.948775   -0.230164
H      4.075479   -2.400362    0.251118
H      6.233832   -1.799889    1.223773
H      6.777023    0.555379    1.595908
H      5.142321    2.271332    0.987033
H      2.963187    1.681635    0.078471
