27

C      1.613471   -0.971911   -0.654020
C      1.324391   -0.144518    0.422743
C     -0.080683   -0.114240    0.896125
C     -0.831610    0.969971    0.150513
C     -2.271492    1.020673    0.617255
C     -2.985946   -0.240641    0.395484
C     -4.067583   -0.309025   -0.368557
N     -0.725066    0.702265   -1.260950
C      2.310249    0.616680    1.023757
C      3.593170    0.557112    0.553430
C      3.898406   -0.248350   -0.502201
C      2.911263   -1.015449   -1.109857
H      0.868613   -1.562428   -1.126476
H     -0.136276    0.067759    1.985354
H     -0.543493   -1.096811    0.681946
H     -0.376885    1.964502    0.334811
H     -2.267293    1.231503    1.701572
H     -2.770828    1.819649    0.040672
H     -2.631544   -1.148791    0.862285
H     -4.591017   -1.243887   -0.528526
H     -4.452267    0.587920   -0.854597
H     -1.092475   -0.236962   -1.526033
H     -1.113187    1.468219   -1.852329
H      2.025192    1.245466    1.862415
H      4.345231    1.177917    1.059758
H      4.926477   -0.278800   -0.858489
H      3.121182   -1.661828   -1.946085
