63

C     -2.658399    1.868062   -0.449154
C     -3.749720    2.718259   -0.514841
O     -3.587961    4.047731   -0.868278
C     -2.284982    4.507745   -1.156869
C     -5.023748    2.261772   -0.229838
C     -5.160126    0.938976    0.118747
C     -4.077264    0.056914    0.193628
C     -2.826166    0.549493   -0.097364
C     -1.940522   -0.525679    0.053044
C     -2.647078   -1.637298    0.426421
C     -2.127040   -2.971411    0.692984
O     -2.904498   -4.041342    1.061726
C     -2.363661   -5.341086    1.317631
C     -3.459082   -6.307879    1.699309
O     -0.891890   -3.167994    0.583006
N     -3.949639   -1.237675    0.500782
C     -0.485639   -0.414364   -0.172415
C      0.222230    0.267222    0.963275
N      1.632301    0.384274    0.781095
C      2.006728    1.276131   -0.259268
C      3.461362    1.383943   -0.522380
N      4.282167    0.407792    0.122809
C      5.696200    0.429565   -0.121084
C      6.192449    1.320236   -1.041156
C      7.551099    1.391093   -1.321712
C      8.400766    0.539945   -0.651279
C      7.932736   -0.369433    0.282033
C      6.572226   -0.417937    0.542579
C      3.788403   -0.618455    1.010606
C      2.311499   -0.878133    0.794924
O     -6.068616    3.153597   -0.312444
C     -7.406423    2.850993   -0.057715
H     -1.655758    2.208150   -0.668871
H     -1.755746    4.646580   -0.191842
H     -1.752072    3.866922   -1.861410
H     -2.385764    5.506396   -1.651743
H     -6.146939    0.567985    0.342541
H     -1.730315   -5.218923    2.235764
H     -1.720689   -5.681689    0.509655
H     -3.848966   -6.860948    0.810540
H     -4.331174   -5.789707    2.138985
H     -3.123010   -7.054988    2.457769
H     -4.722248   -1.871511    0.763577
H     -0.374223    0.268955   -1.074218
H     -0.006214   -1.352716   -0.500782
H     -0.191943    1.310916    1.022550
H     -0.009603   -0.242832    1.924252
H      1.636634    2.300439    0.050662
H      1.453448    1.083468   -1.208409
H      3.837552    2.432339   -0.309708
H      3.616426    1.302110   -1.645429
H      5.544553    2.006910   -1.588008
H      7.904124    2.107237   -2.055213
H      9.463316    0.609218   -0.884395
H      8.599577   -1.037305    0.808989
H      6.212031   -1.126486    1.271641
H      4.304627   -1.578005    0.769690
H      4.044977   -0.342148    2.033221
H      1.956512   -1.436333    1.685305
H      2.136267   -1.495170   -0.087909
H     -7.967874    2.703563   -1.003309
H     -7.562451    1.999179    0.643538
H     -7.862768    3.743338    0.449114
