75

C      2.040802    0.175875    1.042073
C      0.550208    0.492773    0.946259
C      0.129995   -0.892736    0.458142
C     -1.322571   -0.944371    0.276071
C     -1.864891    0.162863   -0.553363
C     -3.369394    0.200275   -0.402452
C     -3.868168   -1.167525   -0.690788
C     -5.110023   -1.261402   -1.192227
C     -5.952703   -0.103277   -1.452548
O     -7.185528   -0.205511   -1.701121
C     -5.385028    1.270472   -1.435919
C     -3.879592    1.111720   -1.503580
C     -3.131614   -2.414121   -0.472713
C     -1.649216   -2.229367   -0.521192
C     -3.605091   -3.432766   -1.492060
C     -3.834184    0.694353    0.939481
C     -1.257363    1.513823   -0.353424
C      0.230170    1.472109   -0.110662
O     -1.902118    2.256282    0.636693
C      0.715683   -1.712267    1.580931
C      2.038005   -1.006834    1.939619
C     -0.015344    0.773459    2.293824
C      2.856176    1.312915    1.372237
C      2.824938    2.090239    2.642196
O      3.789295    3.125493    2.640984
C      3.775456    4.137108    1.727921
C      4.788130    5.246784    1.703292
O      2.891506    4.177048    0.851827
O      3.676953    1.705294    0.531429
O      2.391343   -0.309125   -0.262752
C      3.697434   -0.718283   -0.455951
C      4.147259   -1.233577   -1.797258
C      4.287294   -2.757683   -1.722860
C      4.737805   -3.276187   -3.056573
O      4.581067   -0.696818    0.430183
H      0.647213   -1.077259   -0.505285
H     -1.839001   -1.101392    1.235110
H     -1.700141   -0.112262   -1.640651
H     -5.544665   -2.236633   -1.428906
H     -5.697813    1.877041   -2.304162
H     -5.645366    1.822192   -0.526061
H     -3.607443    0.633687   -2.465647
H     -3.445054    2.113429   -1.475171
H     -3.383493   -2.772073    0.561807
H     -1.098651   -3.081600   -0.128258
H     -1.372113   -1.972667   -1.580429
H     -3.881242   -2.902460   -2.438900
H     -4.504359   -3.971341   -1.135847
H     -2.831021   -4.181211   -1.727800
H     -4.212522    1.728284    0.926080
H     -4.718209    0.048209    1.216118
H     -3.119595    0.607135    1.752491
H     -1.399542    2.091586   -1.296795
H      0.717959    1.180076   -1.044269
H      0.531618    2.513384    0.180848
H     -1.591799    3.176779    0.656493
H      0.978587   -2.708002    1.180104
H      0.062018   -1.801244    2.444090
H      2.131257   -0.811069    3.013461
H      2.903002   -1.702210    1.708398
H      0.690856    0.584985    3.128708
H     -0.901028    0.126965    2.492270
H     -0.392516    1.814901    2.368674
H      2.978472    1.485363    3.542354
H      1.830425    2.612862    2.761296
H      5.655829    5.034952    2.360736
H      4.338067    6.231208    1.875575
H      5.199355    5.249385    0.664647
H      3.411682   -0.915150   -2.535415
H      5.127959   -0.809456   -2.035138
H      4.954673   -2.992534   -0.890087
H      3.260022   -3.123999   -1.505727
H      5.854198   -3.206649   -3.171465
H      4.488460   -4.343660   -3.198815
H      4.307229   -2.666588   -3.870154
