50

O     -1.259250    0.674600   -2.284906
C     -0.821540    0.521269   -0.929390
C      0.661245    0.332486   -1.063623
C      1.420843    0.147396    0.204844
N      2.805124    0.051995   -0.090366
C      3.284360   -1.090429   -0.765687
C      4.716713   -1.332500   -0.334647
C      5.072734   -0.147717    0.501838
C      3.727953    0.445830    0.908775
C     -1.590850   -0.612468   -0.395587
C     -1.383795   -1.939636   -1.117504
C     -2.422933   -2.881686   -0.549884
C     -3.465348   -2.237281    0.289994
C     -2.919492   -1.417957    1.442190
C     -1.508724   -0.915601    1.056177
C     -1.168120    1.811021   -0.295377
C     -2.469356    2.037358    0.083342
C     -2.815936    3.247872    0.699955
C     -1.846409    4.188829    0.914834
C     -0.547616    3.939368    0.524942
C     -0.178452    2.750539   -0.086606
H     -2.018408    0.110545   -2.494978
H      0.764385   -0.597786   -1.722772
H      1.053610    1.134295   -1.720812
H      1.179510    0.806418    1.029746
H      1.131832   -0.900552    0.578191
H      3.324406   -0.882044   -1.851087
H      2.659066   -2.001219   -0.634137
H      5.419750   -1.408207   -1.208308
H      4.830695   -2.261351    0.285318
H      5.664700    0.572800   -0.112174
H      5.626597   -0.384430    1.409353
H      3.458310    0.218372    1.953585
H      3.859117    1.559288    0.845582
H     -2.689112   -0.386017   -0.628724
H     -0.394476   -2.318426   -0.779477
H     -1.410734   -1.847188   -2.212498
H     -2.951090   -3.318153   -1.431583
H     -1.970770   -3.740005   -0.004734
H     -4.049882   -3.067505    0.776724
H     -4.216154   -1.676235   -0.296073
H     -3.549372   -0.507089    1.504641
H     -2.921562   -1.925507    2.404242
H     -1.137335   -0.137095    1.706465
H     -0.881059   -1.844113    1.250349
H     -3.292381    1.332969   -0.060530
H     -3.823380    3.449736    1.001023
H     -2.043385    5.148748    1.386174
H      0.216636    4.689484    0.699715
H      0.869334    2.606978   -0.386537
