39

C      0.335609    1.790758    1.733465
C     -0.899258    1.184576    1.830135
C     -1.030466   -0.084243    1.312122
N     -0.009599   -0.738697    0.725337
C      1.214315   -0.178747    0.611603
C      1.357420    1.089452    1.125850
C      2.624959    1.667185    1.007104
C      3.667014    1.005040    0.410716
C      3.425352   -0.254717   -0.070893
N      2.217084   -0.851388    0.022147
C      2.047033   -2.184673   -0.512720
C      1.620542   -2.190640   -1.947390
C      4.972859    1.635961    0.304048
O      5.237155    2.907959    0.784442
O      5.934216    1.022013   -0.247567
O      2.748511    2.831334    1.481449
C     -2.388114   -0.710109    1.436199
C     -3.234515   -0.397116    0.255662
C     -4.048921    0.724937    0.213918
C     -4.841659    1.033692   -0.870981
C     -4.845529    0.216434   -1.967622
C     -4.047036   -0.913717   -1.966711
C     -3.252960   -1.208742   -0.860987
H      0.488823    2.788040    2.125910
H     -1.754872    1.688861    2.302538
H      4.229693   -0.803726   -0.547853
H      3.029225   -2.695013   -0.413545
H      1.348534   -2.770863    0.142611
H      2.502347   -2.399197   -2.585820
H      0.945780   -3.085185   -2.078181
H      1.095378   -1.286564   -2.274174
H      6.192671    3.175502    0.983246
H     -2.280984   -1.818506    1.510955
H     -2.844082   -0.374357    2.369353
H     -4.088458    1.407705    1.049387
H     -5.466062    1.922548   -0.864891
H     -5.481406    0.490524   -2.802603
H     -4.073726   -1.534713   -2.844833
H     -2.646871   -2.101608   -0.907011
