61

C      1.141862    0.803705    0.078497
N     -0.301685    0.841989    0.034737
C     -1.192114   -0.216108    0.284566
C     -2.663702   -0.064720    0.269088
C     -3.338871   -1.349019    0.679440
C     -4.318143   -1.380571    1.660264
C     -4.944480   -2.550100    2.034576
C     -4.610406   -3.752351    1.433100
C     -3.641578   -3.732937    0.459964
C     -3.012226   -2.544942    0.086449
C     -3.217524    0.392288   -1.027207
C     -4.325675    1.209600   -1.079858
C     -4.854803    1.635717   -2.293125
C     -4.282400    1.250332   -3.486449
C     -3.182409    0.439424   -3.446434
C     -2.657016    0.015877   -2.228852
O     -0.747312   -1.352402    0.536105
C     -0.948743    2.136523   -0.286128
C      1.736184    0.905250    1.429578
C      1.271315    0.308208    2.550145
C      1.877191    0.439273    3.801249
C      2.996446    1.200100    3.941388
C      3.511116    1.831136    2.829403
C      2.897704    1.685243    1.616559
C      1.712402   -0.209795   -0.825898
N      3.069830   -0.416283   -0.929805
C      3.856402   -0.980312    0.067271
C      5.225439   -0.311222   -0.049469
C      5.270034    0.077629   -1.517172
C      3.818543    0.185985   -1.947336
O      5.868680    1.300076   -1.731584
H      1.414292    1.870201   -0.349836
H     -2.999263    0.691849    1.028536
H     -4.611998   -0.467311    2.157782
H     -5.707259   -2.547431    2.804449
H     -5.104571   -4.666631    1.730647
H     -3.368580   -4.656513   -0.018921
H     -2.259582   -2.585207   -0.689065
H     -4.838940    1.560642   -0.187323
H     -5.724504    2.277220   -2.347537
H     -4.676789    1.569893   -4.447607
H     -2.703472    0.114830   -4.382211
H     -1.785774   -0.623862   -2.288193
H     -0.353161    2.963887    0.165857
H     -1.065095    2.251490   -1.376357
H     -1.951222    2.219484    0.167673
H      0.381787   -0.298139    2.510788
H      1.427055   -0.077985    4.629389
H      3.505204    1.330291    4.908051
H      4.398843    2.429312    2.964817
H      3.296226    2.179401    0.730366
H      1.333301    0.062780   -1.865827
H      1.208590   -1.190850   -0.623177
H      3.475259   -1.046036    1.076974
H      4.066143   -2.064736   -0.221106
H      5.337988    0.570458    0.577584
H      6.024517   -1.050511    0.206674
H      5.789791   -0.752058   -2.043684
H      3.541137    1.230032   -2.196303
H      3.720399   -0.401148   -2.885991
H      6.215614    1.309053   -2.679509
