44

C      4.328751    1.185704    1.442037
C      5.589764    1.658097    1.143509
C      6.146490    1.363119   -0.100920
C      5.433784    0.608461   -1.009765
C      4.173552    0.147722   -0.686306
C      3.602468    0.431697    0.549091
C      2.270369   -0.046432    0.910611
C      1.201516    0.492903    0.024275
O     -0.097203    0.108243    0.272895
C     -1.210298    0.550569   -0.498041
C     -2.127533    1.344351    0.339999
C     -3.527273    0.846958    0.434279
N     -3.981567    0.177878   -0.755367
C     -5.381876   -0.094571   -0.705754
C     -3.156835   -1.019524   -0.745832
C     -1.786791   -0.622240   -1.192453
C     -3.067947   -1.443391    0.709744
C     -3.587658   -0.253618    1.491352
O      1.423049    1.269606   -0.924480
C      2.201276   -1.557183    0.938689
O      2.506335   -2.127941   -0.288498
H      3.940676    1.447288    2.433154
H      6.130286    2.238567    1.850739
H      7.138699    1.738825   -0.326983
H      5.907457    0.406170   -1.960979
H      3.651977   -0.439907   -1.429541
H      2.026495    0.299278    1.933862
H     -0.775307    1.232689   -1.286536
H     -1.731138    1.414735    1.395746
H     -2.182781    2.423627    0.010973
H     -4.215033    1.663715    0.737805
H     -5.884769    0.656325   -1.382734
H     -5.844192    0.078297    0.291913
H     -5.656094   -1.084559   -1.133459
H     -3.540115   -1.807980   -1.395073
H     -1.135098   -1.537147   -1.088658
H     -1.844835   -0.467683   -2.310232
H     -2.004410   -1.581577    1.026430
H     -3.636813   -2.364918    0.914651
H     -4.603879   -0.470237    1.819640
H     -2.943356   -0.019562    2.364640
H      1.156012   -1.846754    1.191704
H      2.880891   -1.912131    1.730788
H      2.212955   -3.087470   -0.222281
