42

C      2.778390    1.554858   -0.785312
C      1.735045    1.071806   -1.578340
C      0.694484    0.451742   -0.924752
N      0.757022    0.359356    0.395817
N      1.747052    0.817681    1.151334
C      2.792325    1.431753    0.580779
C      3.877657    1.938342    1.404539
C      5.004916    2.557508    0.920881
C      6.012277    3.027987    1.761466
C      5.894599    2.878026    3.124481
C      4.766767    2.257434    3.629482
C      3.789385    1.802909    2.780295
N     -0.379528   -0.048960   -1.691577
C     -1.475657   -0.716862   -1.007536
C     -2.499986   -1.125210   -2.018927
N     -3.632042   -1.803574   -1.467031
C     -3.339957   -3.097271   -0.942896
C     -4.339590   -3.573187    0.076214
O     -4.319467   -2.598924    1.096333
C     -4.967195   -1.497524    0.602892
C     -4.527491   -1.002511   -0.725280
C      1.767905    1.230876   -3.002419
N      1.794270    1.360732   -4.154695
H      3.590147    2.040941   -1.298323
H      5.114683    2.681773   -0.142683
H      6.897664    3.514457    1.380053
H      6.646884    3.225220    3.813055
H      4.675408    2.143707    4.707825
H      2.920998    1.323843    3.187956
H     -0.388573    0.055240   -2.722618
H     -0.996488   -1.656129   -0.593963
H     -1.849246   -0.179869   -0.136760
H     -2.871750   -0.222893   -2.557057
H     -2.022651   -1.776014   -2.767921
H     -3.349847   -3.826907   -1.778009
H     -2.335396   -3.185549   -0.476232
H     -4.017118   -4.527705    0.495172
H     -5.349663   -3.606930   -0.404894
H     -6.068259   -1.757912    0.609434
H     -4.896531   -0.706680    1.404426
H     -4.177203    0.063695   -0.581478
H     -5.454240   -0.879277   -1.363733
