34

C     -3.850641    0.711352   -0.699583
C     -2.554134    0.558810   -0.214430
C     -1.562203    1.636506   -0.336596
N     -0.417258    1.412887   -1.098253
N      0.487032    0.455829   -0.819295
C      1.829164    0.894637   -0.506851
C      2.862739   -0.082540   -0.195083
C      4.212482    0.261501   -0.353326
C      5.227101   -0.622925   -0.069813
C      4.935646   -1.887154    0.383765
C      3.614764   -2.233416    0.542684
C      2.592314   -1.357130    0.261981
O      2.126854    2.115194   -0.499970
C     -1.280156    2.112046    1.085481
C     -2.216127   -0.617948    0.409060
C     -3.150156   -1.631549    0.548747
C     -4.410407   -1.445963    0.060034
C     -4.786898   -0.288885   -0.565866
H     -4.076152    1.659000   -1.184856
H     -2.097921    2.532129   -0.801088
H     -0.395176    1.808801   -2.061062
H      0.350085   -0.590725   -0.814321
H      4.395746    1.270399   -0.711079
H      6.263787   -0.284379   -0.217881
H      5.768300   -2.550061    0.594196
H      3.385807   -3.221982    0.899995
H      1.562167   -1.648234    0.396502
H     -0.902842    3.152366    1.048193
H     -2.286369    2.177231    1.581458
H     -0.622671    1.449443    1.641916
H     -1.237891   -0.805323    0.828799
H     -2.839379   -2.547243    1.046383
H     -5.128135   -2.248722    0.178548
H     -5.799472   -0.143954   -0.957819
