41

C     -1.989867    0.356464    1.428535
C     -2.628428    1.504841    1.870464
C     -3.480812    2.191965    1.031076
C     -3.667468    1.697123   -0.243237
C     -3.024286    0.550949   -0.670548
C     -2.170008   -0.145340    0.157845
C     -1.480588   -1.377108   -0.300845
C     -0.067861   -1.447541    0.049280
N      0.978216   -0.700889   -0.641930
C      2.129665   -0.342545    0.082949
C      3.167009    0.619032   -0.181802
C      3.032341    1.752168   -0.941885
C      4.114378    2.592414   -1.247739
C      5.353941    2.294679   -0.781185
C      5.520322    1.171110   -0.016052
C      4.481197    0.355258    0.281526
O      2.335715   -0.978220    1.218533
C      0.653290   -0.335695   -1.959588
O      1.489295    0.298696   -2.674674
N     -0.616776   -0.674210   -2.541085
C     -1.592630   -1.386872   -1.813722
O     -2.522092   -2.008294   -2.389830
O      0.328806   -2.175127    0.989461
C     -2.272463   -2.567718    0.167853
C     -2.433576   -2.669236    1.646885
H     -1.337653   -0.155490    2.092048
H     -2.488662    1.904492    2.873835
H     -3.988916    3.096824    1.367658
H     -4.340438    2.248319   -0.891270
H     -3.195523    0.183211   -1.693860
H      2.060056    2.065303   -1.266619
H      3.910598    3.475772   -1.865316
H      6.208042    2.914895   -0.994886
H      6.518021    0.912587    0.373393
H      4.619655   -0.522963    0.879932
H     -0.803596   -0.371835   -3.540310
H     -1.812337   -3.531751   -0.198915
H     -3.299107   -2.585101   -0.276295
H     -3.065708   -1.813378    2.003545
H     -3.092306   -3.570820    1.823340
H     -1.529443   -2.825969    2.229385
