38

C     -2.609000    2.452236    1.391905
C     -1.287859    2.850315    1.575073
C     -0.261686    2.112194    1.027218
C     -0.516340    0.975310    0.293331
C     -1.844107    0.602373    0.126956
C     -2.874557    1.309279    0.654580
C     -2.059448   -0.645722   -0.687868
C     -1.182658   -1.672493   -0.039172
C      0.129786   -1.283953    0.139561
C      0.461483    0.103305   -0.335330
C      1.873453    0.328488   -0.100597
N      2.428039    1.590760   -0.486891
C      3.820128    1.729581   -0.221571
C      0.070174    0.063073   -1.822410
C     -1.353904   -0.338076   -2.019242
C      1.028311   -2.134121    0.716121
C      0.625126   -3.401290    1.128519
C     -0.691812   -3.761806    0.937428
C     -1.621234   -2.913751    0.353681
H     -3.437527    3.018280    1.814592
H     -1.134315    3.745872    2.156008
H      0.747704    2.453890    1.191926
H     -3.901671    1.001603    0.513374
H     -3.081730   -0.928190   -0.812688
H      2.102091    0.194639    0.985785
H      2.464487   -0.447702   -0.632154
H      2.243253    1.758122   -1.499899
H      4.247054    0.914952    0.395371
H      4.009065    2.718440    0.249788
H      4.410149    1.725741   -1.174868
H      0.154242    1.138566   -2.155850
H      0.792858   -0.519813   -2.406329
H     -1.973860    0.423948   -2.536622
H     -1.381088   -1.308371   -2.592449
H      2.048518   -1.834188    0.855174
H      1.286791   -4.116609    1.589455
H     -1.082030   -4.740931    1.235968
H     -2.647885   -3.163948    0.192125
