39

C     -4.912261    0.459446   -1.481489
C     -3.592919    0.062689   -1.409253
C     -3.019561   -0.379603   -0.225666
C     -3.795760   -0.423928    0.917659
C     -5.117844   -0.031411    0.867214
C     -5.664855    0.405432   -0.325124
C     -1.621517   -0.793331   -0.182303
C     -0.676233    0.327281    0.169568
N      0.685692   -0.153431    0.194406
C      0.970225   -1.143784    1.167435
C      1.605276    0.921983    0.077050
C      3.024399    0.505013    0.123415
C      3.796109    0.563862    1.262857
C      5.116599    0.163197    1.270276
C      5.662448   -0.307085    0.093306
C      4.929938   -0.382882   -1.065185
C      3.613609    0.028664   -1.025744
C     -0.815508    1.395842   -0.876882
H     -5.355291    0.806995   -2.416978
H     -3.020576    0.113116   -2.327868
H     -3.310663   -0.774223    1.817431
H     -5.688104   -0.082143    1.787485
H     -6.707814    0.699820   -0.301768
H     -1.527894   -1.668003    0.489175
H     -1.300490   -1.148164   -1.205297
H     -0.864955    0.718314    1.199246
H      1.832755   -0.903171    1.837700
H      1.227596   -2.096565    0.652549
H      0.125093   -1.363524    1.861049
H      1.464465    1.707517    0.870992
H      1.477880    1.394148   -0.938618
H      3.326362    0.941303    2.165170
H      5.694546    0.222809    2.184521
H      6.710118   -0.619621    0.122481
H      5.382401   -0.756704   -1.979075
H      3.061140   -0.044729   -1.959615
H     -0.273376    2.328532   -0.608839
H     -0.549789    0.982714   -1.848909
H     -1.891241    1.736147   -0.952373
