62

C      0.143360   -0.100667    0.955692
C     -0.854325    0.674799    0.203063
C     -2.025262   -0.274486    0.029240
C     -3.161022    0.414010   -0.662233
C     -3.568599    1.509580    0.259040
C     -4.763667    1.661349    0.770509
C     -5.808460    0.722593    0.451842
O     -6.958352    0.860404    0.937879
C     -5.466944   -0.371810   -0.445280
C     -4.253607   -0.507465   -0.951522
C     -2.533176    2.520639    0.639932
C     -1.201320    1.922143    0.924163
C     -2.777813    1.093785   -1.953097
C     -1.650668   -1.587955   -0.544795
O     -1.841148   -1.635079   -1.949242
C     -0.352745   -2.153423   -0.143854
C      0.767757   -1.142169    0.060804
C      1.875756   -1.639558    0.951443
C      3.106344   -2.047001    0.292798
C      4.137151   -1.303092   -0.410029
O      3.972235    0.086534   -0.478431
C      4.814876    0.959681   -1.084792
C      4.584059    2.446502   -1.125608
O      5.844731    0.514686   -1.644576
O      3.379560   -3.270895    0.305320
O      1.295934   -2.800544    1.549319
C      2.017910   -0.642037    2.052570
C      1.321912    0.588243    1.520205
C      3.374203   -0.426274    2.579181
C      1.169433   -0.659794   -1.277010
F     -2.477309   -0.521433    1.339848
H     -0.354543   -0.624440    1.799480
H     -0.546010    0.952547   -0.831244
H     -4.978113    2.493500    1.437583
H     -6.271973   -1.076578   -0.677241
H     -4.135333   -1.373909   -1.610145
H     -2.421796    3.178691   -0.261439
H     -2.898305    3.183875    1.449649
H     -0.429217    2.725073    0.733414
H     -1.141745    1.770064    2.042685
H     -3.718697    1.626545   -2.289837
H     -2.042040    1.911986   -1.819772
H     -2.515522    0.430183   -2.773435
H     -2.439521   -2.322483   -0.179828
H     -2.013876   -2.545688   -2.240258
H      0.008403   -2.831766   -0.958936
H     -0.441829   -2.749145    0.775124
H      5.111186   -1.455013    0.151510
H      4.367813   -1.644251   -1.431414
H      3.930406    2.622516   -2.005677
H      4.023763    2.793398   -0.236943
H      5.537555    2.988106   -1.277421
H      1.945076   -3.513868    1.645616
H      1.359489   -0.961046    2.916126
H      1.893835    1.205843    0.843982
H      1.100084    1.214386    2.414874
H      4.019376   -1.304962    2.363217
H      3.363900   -0.337866    3.687244
H      3.852984    0.532930    2.229443
H      0.343012   -0.826088   -2.035317
H      1.974228   -1.351915   -1.666076
H      1.406606    0.398106   -1.368547
