73

C      1.310070   -0.149781   -0.796246
C     -0.058340   -0.518970   -0.277458
C     -0.972424    0.446440   -1.008176
C     -2.366013   -0.034509   -0.871328
C     -2.747236    0.526390    0.505415
C     -4.149267    0.152959    0.918141
C     -5.041026    0.508520   -0.198024
C     -6.042754    1.325982   -0.099017
C     -6.366572    1.982096    1.156694
O     -7.329519    2.777300    1.293020
C     -5.528202    1.697017    2.305735
C     -4.513418    0.847249    2.146520
C     -4.696866   -0.061111   -1.577554
C     -3.293763    0.484321   -1.911051
C     -4.238077   -1.350053    1.211728
F     -2.817723    1.904226    0.278051
C     -1.703856    0.266399    1.522490
C     -0.372230   -0.258053    1.153649
O     -2.284304   -0.657411    2.439067
C     -0.368354    0.588475   -2.324689
C      1.031582    0.928072   -1.830308
C      1.912213    0.992674   -2.999224
C     -0.420790   -1.972320   -0.575843
C      1.941376   -1.237344   -1.570246
C      3.229015   -1.860424   -1.578531
O      4.316387   -1.490234   -0.877772
C      5.101358   -0.385259   -0.853653
C      6.277948   -0.242291    0.035984
C      6.931808    1.103398   -0.115997
O      4.781918    0.537067   -1.639954
O      1.171573   -1.749311   -2.434792
O      2.149478    0.329144    0.217023
C      2.624357   -0.318800    1.313877
C      3.496922    0.362873    2.336212
C      3.921713   -0.597699    3.408206
O      2.344540   -1.505588    1.502656
H     -0.809951    1.440847   -0.485914
H     -2.497074   -1.121868   -0.817694
H     -6.693943    1.558472   -0.967609
H     -5.730924    2.174979    3.284397
H     -3.953028    0.720755    3.092669
H     -4.605609   -1.139454   -1.447865
H     -5.369100    0.309331   -2.335871
H     -3.060569    0.109926   -2.905839
H     -3.386030    1.596019   -1.882052
H     -3.389892   -1.917450    0.826421
H     -4.428061   -1.546279    2.284106
H     -5.165734   -1.724638    0.686502
H     -1.605821    1.189806    2.176052
H     -0.240140   -1.251138    1.695202
H      0.375193    0.395672    1.670674
H     -1.601042   -0.731192    3.163757
H     -0.418804   -0.244332   -3.018164
H     -0.769058    1.497392   -2.884357
H      0.953883    1.931715   -1.364777
H      2.381095    0.039545   -3.320554
H      2.696957    1.801784   -2.897827
H      1.308217    1.333756   -3.868515
H     -0.903695   -2.130759   -1.530450
H      0.496112   -2.604347   -0.391014
H     -1.115373   -2.347194    0.237118
H      3.601760   -2.044429   -2.665218
H      3.032897   -2.963619   -1.290261
H      7.067734   -1.012998   -0.232383
H      6.081447   -0.427142    1.098421
H      7.887531    1.038423   -0.678304
H      7.197111    1.481267    0.890267
H      6.229719    1.833032   -0.577129
H      4.320660    0.922541    1.886330
H      2.782343    1.091574    2.828217
H      4.076226   -1.634098    2.995136
H      4.866349   -0.285299    3.877961
H      3.157087   -0.712044    4.215372
