45

H      0.000000    0.000000    0.000000
C     -2.763259   -1.269329   -0.546444
C     -1.639770   -0.663616   -0.037992
C     -1.709865    0.683153    0.551362
C     -3.050759    1.261269    0.560695
C     -3.860422    0.987800    1.643328
C     -5.141825    1.464252    1.786690
C     -5.631232    2.263845    0.775190
C     -4.856849    2.567805   -0.333663
C     -3.574432    2.062352   -0.427992
C     -0.373021   -1.274090   -0.042664
C     -0.334339   -2.536633   -0.597668
C     -1.463546   -3.176452   -1.122776
C     -2.683452   -2.536550   -1.095595
O      0.672665   -0.598354    0.482447
C      2.002064   -0.823482    0.650286
C      2.824963   -0.996292   -0.622158
C      4.257004   -1.231153   -0.330030
C      5.021340   -0.182905    0.378015
N      5.204328    1.070274   -0.207615
C      4.160883    1.985924   -0.388957
Cl     0.000000    0.000000    0.000000
H     -3.740096   -0.809827   -0.548391
H     -1.344508    0.604123    1.599305
H     -0.967357    1.321858    0.025411
H     -3.503103    0.353638    2.468127
H     -5.744446    1.217364    2.667545
H     -6.632833    2.653800    0.857076
H     -5.287504    3.200114   -1.100034
H     -2.952972    2.296715   -1.301595
H      0.604962   -3.065006   -0.618288
H     -1.384006   -4.172324   -1.550886
H     -3.523859   -3.051817   -1.504099
H      2.241260   -1.666277    1.362913
H      2.437357    0.064614    1.173848
H      2.694153   -0.084627   -1.262728
H      2.431727   -1.823202   -1.227494
H      4.759173   -1.525027   -1.285974
H      4.300172   -2.183456    0.286120
H      6.061256   -0.614027    0.570787
H      4.647415   -0.045415    1.445506
H      6.050050    1.209481   -0.780018
H      4.646959    3.029670   -0.339885
H      3.695929    2.017576   -1.405389
H      3.449793    2.014235    0.439162
