152

C      2.061523    4.238624   -2.846260
O      2.108871    4.028899   -1.480283
C      0.888594    4.208030   -0.879613
C      0.331604    2.933227   -0.345081
C     -1.038141    3.179950    0.322884
C     -1.719884    1.839279    0.214092
C     -3.004380    1.661816   -0.195022
C     -3.592768    0.395004   -0.287603
C     -4.882882    0.230966   -0.698172
C     -5.502405   -1.039926   -0.799238
O     -6.772171   -1.129695   -1.209977
C     -7.794858   -1.924580   -1.462349
C     -9.031727   -1.438403   -0.701094
C    -10.060024   -2.516385   -0.775404
O    -11.352630   -2.053016   -0.549627
C    -11.956427   -2.686515    0.538290
C    -12.122633   -1.652798    1.610451
C    -13.025700   -2.180409    2.677161
O    -13.177846   -1.281808    3.734066
C    -14.349118   -2.530701    2.071760
O    -14.895632   -3.602313    2.773783
C    -14.278124   -2.805379    0.601555
C    -14.654916   -1.605705   -0.211669
O    -13.082245   -3.378134    0.208235
C    -10.033603   -3.142366   -2.140336
O     -9.362593   -4.362345   -2.139775
C     -9.351094   -2.263567   -3.166774
C    -10.230716   -1.088932   -3.544387
O     -8.068118   -1.910817   -2.848480
C     -4.709305   -2.112685   -0.452582
C     -5.259338   -3.501541   -0.532113
C     -3.392990   -1.957166   -0.032732
O     -2.577057   -2.995749    0.319823
C     -2.825614   -0.682704    0.051115
C     -1.502955   -0.536553    0.475233
O     -0.803456   -1.657157    0.793987
C     -0.948415    0.717239    0.558242
C      0.414322    0.926340    1.008739
O      0.971459    0.087126    1.740965
C      1.163029    2.156688    0.596385
O      2.428779    1.801246    0.120590
C      3.375854    2.226778    1.030009
C      4.164422    1.052362    1.602359
C      5.500367    1.488257    2.149819
O      6.462427    1.328961    1.181349
C      7.492667    0.470120    1.599400
C      7.657635   -0.737590    0.757386
C      9.104175   -1.106396    0.526731
O      9.265702   -2.189609   -0.318028
C      9.951310   -3.237019    0.300303
C      9.036499   -4.436928    0.348145
C      9.355528   -5.437545   -0.720912
C      8.105125   -6.211230   -1.053757
O     10.344104   -6.289765   -0.225863
C      9.849046   -4.778323   -1.991831
O     10.331784   -5.773902   -2.834820
C     10.978137   -3.809609   -1.706221
C     10.858735   -2.542686   -2.492978
O     11.108678   -3.525213   -0.372033
C      9.880421    0.078394   -0.019716
O     11.245895   -0.030842    0.221689
C      9.291136    1.371682    0.524866
C      8.465563    2.120741   -0.472855
O      8.640274    1.204660    1.697501
C      5.331611    2.917214    2.623865
O      4.413959    2.910152    3.666890
C      4.843238    3.846610    1.557504
C      5.944918    4.790201    1.121013
O      4.325772    3.094566    0.506056
C      0.827516    5.361374    0.022149
O     -0.156938    5.557539    0.700513
C      1.960581    6.307165    0.122660
O      2.965006    6.092909   -0.789803
C      1.508968    7.763995   -0.011985
C      2.683359    8.634463    0.310400
O      1.051276    8.034913   -1.278866
H      3.030758    4.101737   -3.337140
H      1.681815    5.274088   -3.079304
H      1.338273    3.539735   -3.334934
H      0.161003    4.491887   -1.734554
H      0.132901    2.276771   -1.231408
H     -0.910319    3.463901    1.366676
H     -1.542860    3.936079   -0.312012
H     -3.602657    2.512974   -0.459854
H     -5.479833    1.073131   -0.961271
H     -7.698612   -2.985136   -1.198390
H     -8.713165   -1.326317    0.355386
H     -9.368451   -0.451544   -1.049745
H     -9.773388   -3.298651   -0.041940
H    -11.195246   -3.421567    0.928297
H    -12.414669   -0.652535    1.238566
H    -11.107814   -1.497145    2.082148
H    -12.577970   -3.096838    3.104641
H    -13.096704   -0.352594    3.392240
H    -15.032980   -1.652202    2.228524
H    -14.464127   -4.442673    2.451012
H    -15.071062   -3.583022    0.388182
H    -15.333267   -1.870239   -1.075460
H    -15.268763   -0.873328    0.391475
H    -13.803296   -1.075732   -0.669406
H    -11.055662   -3.333162   -2.531074
H    -10.034360   -5.079148   -1.979360
H     -9.282804   -2.900334   -4.099276
H    -10.692903   -1.203080   -4.546149
H     -9.621626   -0.140540   -3.600129
H    -11.093067   -0.974913   -2.839055
H     -6.023296   -3.706542    0.217929
H     -5.554331   -3.713558   -1.589715
H     -4.450326   -4.261135   -0.341376
H     -2.709306   -3.960341    0.357647
H      0.111074   -1.826918    1.100314
H      1.261521    2.736174    1.563734
H      2.906303    2.737280    1.892790
H      4.357807    0.371344    0.745327
H      3.581443    0.470791    2.334051
H      5.706725    0.894317    3.067697
H      7.262365    0.127136    2.654334
H      7.182196   -0.612944   -0.240787
H      7.142543   -1.635063    1.190997
H      9.580853   -1.372213    1.503078
H     10.231558   -2.971917    1.345524
H      9.097449   -4.915323    1.357113
H      7.988860   -4.066840    0.270677
H      7.509630   -5.644496   -1.818612
H      7.460337   -6.311019   -0.156823
H      8.323545   -7.242632   -1.402016
H     10.656869   -6.905900   -0.937804
H      9.035104   -4.228011   -2.493762
H      9.815831   -6.619302   -2.777314
H     11.959024   -4.277650   -2.019225
H     11.407595   -2.606334   -3.476531
H     11.307446   -1.679231   -1.969316
H      9.786510   -2.289409   -2.668550
H      9.732127    0.091902   -1.113485
H     11.685617    0.815738    0.041002
H     10.201964    2.018377    0.748568
H      7.797714    2.833447    0.048523
H      7.842200    1.480842   -1.128890
H      9.108551    2.785993   -1.125404
H      6.284266    3.326335    3.023656
H      4.843143    3.140779    4.532784
H      3.977408    4.474621    1.918906
H      5.739728    5.792931    1.540514
H      6.905606    4.469514    1.539974
H      5.941051    4.863439    0.023712
H      2.378341    6.158380    1.162364
H      3.709264    5.545611   -0.510578
H      0.703678    7.991451    0.722088
H      3.104764    8.267040    1.287619
H      3.440991    8.704444   -0.471232
H      2.272062    9.647375    0.549561
H      0.113890    7.728431   -1.362983
