59

C     -8.320441   -1.881520   -0.612201
N     -7.166628   -1.523438   -0.027969
C     -6.752684   -0.262609    0.139900
N     -7.576621    0.721479   -0.322921
C     -8.733969    0.417054   -0.910944
C     -9.152441   -0.889228   -1.079680
N     -5.531867    0.078671    0.757254
C     -4.678606   -0.956227    1.277374
C     -3.314172   -0.379835    1.661884
N     -2.855337    0.604455    0.778193
C     -1.486660    0.655799    0.437549
C     -0.973006   -0.473243   -0.379007
C      0.484084   -0.274790   -0.683160
C      1.365260   -0.191425    0.532925
N      2.742271   -0.016789    0.071378
C      3.273229    1.292308   -0.144018
C      4.710101    1.568043   -0.271410
C      5.550396    0.340697   -0.388995
C      4.842165   -0.844344   -0.960614
C      3.610301   -1.112434   -0.187404
O      3.300285   -2.253047    0.246187
C      6.184600   -0.059227    0.930553
C      7.450780   -0.805452    0.589042
C      7.812628   -0.379147   -0.823690
C      6.773923    0.620291   -1.246774
O      2.455808    2.251905   -0.226916
C     -3.737983    1.542128    0.227680
C     -5.103573    1.432609    0.882445
H     -8.620408   -2.913511   -0.729304
H     -9.412608    1.191275   -1.291364
H    -10.084258   -1.159584   -1.553669
H     -4.592990   -1.745196    0.511280
H     -5.147054   -1.362116    2.199388
H     -2.662885   -1.233964    1.831552
H     -3.480662    0.095091    2.672480
H     -1.229820    1.613975   -0.042686
H     -0.909959    0.636137    1.409854
H     -1.054136   -1.459625    0.132580
H     -1.486047   -0.592031   -1.355810
H      0.662525    0.648805   -1.274680
H      0.845976   -1.149734   -1.276295
H      1.048644    0.693942    1.133550
H      1.351983   -1.094368    1.157477
H      4.892988    2.259910   -1.130185
H      5.022286    2.111913    0.654694
H      5.546920   -1.697357   -0.947130
H      4.575468   -0.601975   -2.020448
H      6.374934    0.836021    1.561501
H      5.495027   -0.758050    1.435626
H      8.272483   -0.509428    1.279668
H      7.345873   -1.901320    0.688678
H      7.764212   -1.254183   -1.512127
H      8.822672    0.069848   -0.835461
H      6.509744    0.527085   -2.320199
H      7.105170    1.666110   -1.083443
H     -3.383160    2.581171    0.456750
H     -3.898782    1.468203   -0.867256
H     -5.022306    1.649927    1.987714
H     -5.823669    2.160349    0.472593
