32

C      0.698441    0.344246   -0.826244
C     -0.507110    0.064140    0.004342
C     -0.493035   -1.182734    0.767083
N     -0.815150   -2.414981    0.114455
C     -1.565000   -2.383438   -1.085429
O     -1.854461   -3.485895   -1.670531
N     -1.985471   -1.162072   -1.626594
C     -1.659737    0.042432   -0.972996
O     -2.265629    1.122399   -1.143840
O     -0.202024   -1.206518    2.004732
C     -0.746101    1.272770    0.894922
C     -1.924844    1.101797    1.766100
C     -2.930880    1.944373    1.677283
C      2.004864    0.469601   -0.142550
C      3.093863    0.777970   -1.201473
C      2.457644   -0.800928    0.535892
H      0.486220    1.305788   -1.381467
H      0.757748   -0.437802   -1.645766
H     -0.502719   -3.349194    0.512957
H     -2.540930   -1.112226   -2.511854
H     -0.867302    2.137959    0.211263
H      0.118646    1.496704    1.541165
H     -1.970621    0.296656    2.472267
H     -2.908931    2.766295    0.971657
H     -3.829177    1.875836    2.289196
H      2.076429    1.279390    0.586701
H      3.972666    1.187598   -0.689192
H      3.412842   -0.168277   -1.691261
H      2.696321    1.509225   -1.939793
H      3.537513   -1.011044    0.315250
H      2.417593   -0.643436    1.652456
H      1.838333   -1.636633    0.211269
