49

C     -1.220982    2.589253   -0.122368
C     -1.908919    3.570558   -0.826584
C     -2.947632    3.221342   -1.646645
C     -3.271952    1.904595   -1.741953
C     -2.588304    0.899924   -1.038083
C     -1.531193    1.262064   -0.205522
C     -0.673028    0.403900    0.608575
C     -1.351565   -0.868994    1.038045
C     -1.174618   -1.146206    2.370430
C     -1.715333   -2.263249    2.949613
C     -2.456752   -3.130720    2.173964
C     -2.632700   -2.842069    0.818828
C     -2.084669   -1.718661    0.250433
C     -2.389612   -1.600783   -1.181208
C     -3.231006   -0.376327   -1.383884
C      0.628113    0.011353    0.031406
C      1.648837    1.032726   -0.265321
C      2.821942    0.333050   -0.930068
N      3.479320   -0.680187   -0.249695
C      4.292560   -0.438032    0.873469
C      4.173088   -1.551236   -1.181090
C      2.190830    1.743762    0.947918
H     -0.425921    2.964514    0.503761
H     -1.636702    4.615244   -0.739132
H     -3.514859    3.971383   -2.222240
H     -4.105677    1.654185   -2.403744
H     -0.522765    0.959988    1.588713
H     -0.597323   -0.465809    2.965677
H     -1.594817   -2.512863    4.004316
H     -2.907308   -4.024466    2.574288
H     -3.221649   -3.544322    0.233707
H     -1.511474   -1.537521   -1.846335
H     -3.039650   -2.468548   -1.514815
H     -4.099118   -0.483405   -0.674587
H     -3.642358   -0.328545   -2.413559
H      1.075583   -0.799069    0.660346
H      0.412885   -0.518201   -0.945825
H      1.269656    1.787403   -0.968173
H      2.364540   -0.105250   -1.871941
H      3.486323    1.138278   -1.335357
H      3.872962   -0.842034    1.846618
H      4.675572    0.598162    0.987999
H      5.275463   -1.038429    0.819971
H      4.519683   -2.486029   -0.705124
H      5.091660   -0.993006   -1.498334
H      3.577538   -1.716364   -2.105030
H      1.550162    2.489793    1.393034
H      2.481533    1.040902    1.757503
H      3.109635    2.287948    0.618002
