59

C     -4.164408   -0.035362    1.330420
C     -5.243910   -0.762460    1.718183
C     -5.702530   -1.835273    0.965393
C     -5.011066   -2.122598   -0.187359
C     -3.910505   -1.409580   -0.616422
C     -3.475086   -0.328442    0.173122
N     -2.355273    0.437004   -0.216548
C     -1.029391   -0.118785    0.016111
C     -0.244258   -0.329599   -1.238976
C      1.213792   -0.184593   -1.078859
N      1.773781   -0.453831    0.211711
C      3.111793    0.122283    0.229736
C      4.048393   -0.608495   -0.696041
C      5.376675    0.049386   -0.618370
C      5.694342    1.092386   -1.481152
C      6.920232    1.718014   -1.428379
C      7.883360    1.341978   -0.523857
C      7.584325    0.313425    0.334920
C      6.345849   -0.321828    0.285004
C      1.039505    0.104799    1.305729
C     -0.208937    0.828751    0.887508
C     -1.156401   -1.432495    0.685673
O     -2.220173   -1.896230    1.403484
C     -2.188244   -3.177653    1.987339
O     -0.139501   -2.220467    0.575266
C     -2.535025    1.693489   -0.820719
C     -3.715996    2.468804   -1.126203
C     -5.062120    1.977526   -0.815357
O     -1.414761    2.277308   -1.176625
H     -3.825656    0.793815    1.930487
H     -5.771494   -0.522009    2.623539
H     -6.575243   -2.406314    1.298564
H     -5.370869   -2.959106   -0.772541
H     -3.382011   -1.655361   -1.529010
H     -0.547521   -1.352554   -1.620008
H     -0.559267    0.347934   -2.083568
H      1.601268    0.826039   -1.403787
H      1.710667   -0.899907   -1.800304
H      3.559534    0.116272    1.245632
H      3.095315    1.193342   -0.080750
H      3.690220   -0.482089   -1.730981
H      4.172641   -1.663529   -0.457510
H      4.931532    1.385319   -2.194163
H      7.142263    2.520976   -2.105582
H      8.861812    1.823167   -0.463518
H      8.356267    0.023678    1.048352
H      6.135875   -1.121252    0.964523
H      1.671237    0.827633    1.901063
H      0.774878   -0.694516    2.009490
H      0.133877    1.674469    0.273274
H     -0.740568    1.163876    1.777945
H     -2.651009   -3.206953    2.996508
H     -2.711286   -3.860708    1.256594
H     -1.132142   -3.503388    2.030633
H     -3.722911    2.824784   -2.208030
H     -3.606870    3.470040   -0.576908
H     -5.802236    2.595065   -1.451480
H     -5.216400    0.964941   -1.175437
H     -5.436365    2.194618    0.212242
