35

H      0.000000    0.000000    0.000000
C      2.390587    0.095694   -1.539656
C      1.552369   -0.000659   -0.422617
C      0.141634   -0.110171   -0.744326
C     -0.856233   -0.128691    0.346201
N     -2.157318   -0.284469   -0.256890
C     -3.167245   -0.914586    0.460265
C     -2.418347    0.390017   -1.452929
C     -0.914038    1.246094    0.982037
O     -1.922461    1.337932    1.934910
C     -0.671063   -1.252592    1.325553
C      2.167014   -0.001253    0.784209
C      3.548031    0.086280    0.927647
C      4.340997    0.177464   -0.180406
C      3.755708    0.182552   -1.426019
Cl     4.791182    0.300488   -2.859107
Cl     6.096708    0.277509   -0.060019
Cl     0.000000    0.000000    0.000000
H      2.004871    0.103629   -2.560776
H     -0.144273    0.759544   -1.424180
H      0.015485   -0.989966   -1.409972
H     -3.164030   -0.834999    1.565021
H     -3.176905   -2.011084    0.229271
H     -4.189565   -0.527178    0.170579
H     -2.422919    1.484472   -1.429008
H     -3.458610    0.106253   -1.780879
H     -1.789988    0.005467   -2.309873
H     -0.004899    1.636861    1.393407
H     -1.224408    1.943200    0.147721
H     -2.756284    1.714034    1.558330
H     -0.574462   -0.894315    2.375440
H     -1.511752   -1.974419    1.360492
H      0.196683   -1.924415    1.040092
H      1.557590   -0.076089    1.662255
H      3.965940    0.077396    1.920541
