15

Cl     2.542346    1.729296   -0.375899
C      1.253338    0.485845   -0.518554
C      0.490981    0.500223    0.782009
C     -0.625048   -0.526503    0.750603
C     -1.590787   -0.230840   -0.370570
O      1.859534   -0.763811   -0.705004
H      0.621946    0.700928   -1.391187
H      0.000948    1.501745    0.870463
H      1.193872    0.348009    1.599093
H     -1.204235   -0.378696    1.704524
H     -0.236661   -1.564055    0.726527
H     -1.965111    0.798416   -0.214247
H     -2.450917   -0.946506   -0.230494
H     -1.149814   -0.310452   -1.369261
H      1.259607   -1.343600   -1.258004
