80

C      3.980494    0.764092    0.993394
C      5.176960    0.031016    0.483521
C      5.502569   -1.219002    0.945118
C      6.639997   -1.665887    0.317420
C      7.394995   -2.839734    0.402336
C      8.523594   -3.014413   -0.373737
C      8.899831   -2.008461   -1.241041
C      8.144075   -0.859057   -1.311302
C      7.014579   -0.660113   -0.548213
N      6.126496    0.339639   -0.429941
Cl     9.481739   -4.497263   -0.267879
C      4.665182   -1.855818    1.959708
C      3.861638   -0.912353    2.771229
N      3.398994    0.245769    2.155584
C      2.037287    0.608584    2.291793
C      1.200856   -0.077576    1.197614
C     -0.161179    0.524080    1.297247
C     -0.941514    0.096276    0.076097
O     -2.330224    0.316749    0.184648
C     -3.255573   -0.706474    0.012505
C     -4.698983   -0.487585    0.122894
C     -5.239858    0.744512    0.414722
C     -6.607245    0.958723    0.516608
C     -7.481328   -0.101533    0.319233
C     -6.956280   -1.342969    0.025946
C     -5.586646   -1.523964   -0.068701
O     -7.849045   -2.386239   -0.167363
C     -7.350001   -3.666232   -0.468909
O     -8.842744    0.145973    0.428129
C     -9.512772    0.017060    1.682230
O     -7.135696    2.206436    0.811739
C     -6.229374    3.275030    1.010629
O     -2.781446   -1.842782   -0.246497
C     -0.315779    0.895534   -1.049486
C      1.022521    0.243348   -1.323131
C      1.862861    0.018748   -0.133155
C      3.003242    1.037797   -0.132587
C      1.679626    1.034653   -2.390379
O      1.964898    2.394163   -2.289565
C      2.593977    3.133188   -3.320069
O      2.023666    0.499941   -3.475896
O     -1.118223    0.765483   -2.163580
C     -1.549683    2.001085   -2.663381
H      4.390655    1.790865    1.253686
H      7.075634   -3.611381    1.091834
H      9.789932   -2.186801   -1.830810
H      8.475861   -0.103108   -2.000628
H      6.144324    1.225317   -0.949761
H      5.256247   -2.493815    2.668773
H      3.959309   -2.581319    1.459049
H      3.009276   -1.497701    3.217751
H      4.476188   -0.629070    3.677352
H      1.911345    1.692411    2.281354
H      1.677719    0.226967    3.287272
H      1.108802   -1.135093    1.543469
H     -0.621956    0.158991    2.237383
H     -0.050717    1.639064    1.288895
H     -0.704044   -0.967420   -0.146400
H     -4.544696    1.558828    0.565688
H     -5.170736   -2.506990   -0.300674
H     -6.776126   -4.003314    0.411992
H     -8.136995   -4.383352   -0.739799
H     -6.646920   -3.534990   -1.331490
H     -8.833949   -0.431337    2.453437
H     -9.837934    1.000001    2.064308
H    -10.396654   -0.642389    1.620479
H     -6.732336    4.170567    1.403280
H     -5.698601    3.504231    0.044027
H     -5.425736    2.989025    1.715802
H     -0.158484    1.950894   -0.754679
H      0.727745   -0.737433   -1.814473
H      2.398027   -0.967117   -0.293939
H      2.565343    2.032586   -0.082968
H      3.558481    0.927977   -1.081341
H      3.679383    3.253909   -3.160490
H      2.048091    4.104543   -3.376216
H      2.354657    2.605411   -4.272813
H     -2.184331    1.778814   -3.554720
H     -2.212415    2.531920   -1.942221
H     -0.730876    2.639886   -3.007944
