24

C     -2.871535   -0.730473   -0.440095
C     -1.504614   -0.654161   -0.273335
C     -0.891373    0.556857    0.027119
C     -1.702278    1.665453    0.149461
C     -3.069217    1.582311   -0.018605
C     -3.685567    0.390026   -0.315828
O      0.487675    0.607515    0.190247
C      1.371340   -0.381325   -0.213206
C      2.638746   -0.419391    0.625459
C      3.390032    0.891093    0.550233
Cl     3.867670    1.273709   -1.117377
N      0.794444   -1.712599   -0.219658
C     -0.614307   -1.802603   -0.394087
O     -1.097730   -2.930867   -0.664246
H     -3.320425   -1.687886   -0.673650
H     -1.199647    2.605162    0.385583
H     -3.692617    2.481503    0.084449
H     -4.759067    0.353951   -0.442220
H      1.717027   -0.179514   -1.264944
H      2.420476   -0.601347    1.697414
H      3.324309   -1.207419    0.252756
H      2.719076    1.663896    0.981261
H      4.275510    0.805159    1.192621
H      1.402073   -2.569053   -0.099352
