40

C      2.076517    2.319555   -0.269437
C      1.527120    1.067039   -0.451222
C      0.247090    0.705883   -0.081982
C     -0.510259    1.725181    0.520052
C     -1.916032    1.695154    1.052021
C     -2.859046    0.975729    0.130501
C     -2.670286   -0.515114    0.227795
C     -1.482401   -1.180034    0.016823
N     -0.197975   -0.629033   -0.340764
C      0.593653   -1.638675   -1.022845
C      1.530211   -0.819432   -1.931261
C      2.401919    0.053870   -1.081422
N      3.056725   -0.720910   -0.045108
C      4.104054    0.090533    0.596343
C     -1.422771   -2.561146    0.137639
C     -2.533994   -3.301090    0.467385
C     -3.713893   -2.592446    0.671832
C     -3.796514   -1.216658    0.556988
C      0.035748    2.978108    0.703485
C      1.318864    3.290307    0.317084
H      3.090504    2.573036   -0.574015
H     -1.934277    1.256845    2.073721
H     -2.271372    2.741133    1.130529
H     -3.890837    1.250429    0.353770
H     -2.652543    1.341732   -0.904220
H      1.280182   -2.198336   -0.400269
H      0.009934   -2.211795   -1.771616
H      0.939868   -0.190894   -2.632655
H      2.173983   -1.521689   -2.512891
H      3.177665    0.520039   -1.740650
H      2.324887   -0.862461    0.704949
H      4.663572   -0.542029    1.313742
H      4.853202    0.410140   -0.174778
H      3.666795    0.971079    1.107355
H     -0.510985   -3.062186   -0.024348
H     -2.506012   -4.381392    0.566610
H     -4.605832   -3.166261    0.934815
H     -4.719053   -0.690849    0.719399
H     -0.595081    3.745033    1.179409
H      1.716669    4.291601    0.477235
