26

C     -3.166331    1.300501    0.364148
C     -2.171562    0.345431    0.158485
C     -2.553891   -0.890755   -0.256285
C     -3.887799   -1.183315   -0.465072
C     -4.881657   -0.231444   -0.260310
C     -4.502703    1.028180    0.161376
Br    -5.840001    2.380178    0.458811
C     -0.784573    0.725228    0.398838
C      0.242515   -0.065275    0.246706
C      1.606429    0.436366    0.522536
N      2.756240   -0.381233    0.372970
C      4.066142    0.171908    0.659859
C      5.168035   -0.810867    0.455091
O      1.776525    1.621053    0.902581
H     -2.885287    2.294836    0.695423
H     -1.822812   -1.662699   -0.429006
H     -4.163969   -2.178552   -0.796173
H     -5.931074   -0.476128   -0.429036
H     -0.555643    1.748341    0.734342
H      0.082482   -1.080199   -0.080138
H      2.642715   -1.359764    0.061449
H      4.123084    0.526849    1.717434
H      4.277610    1.069542    0.028493
H      5.334524   -1.469789    1.347004
H      4.938650   -1.518234   -0.388714
H      6.132351   -0.340162    0.194659
