31

C      2.178750    1.084585   -1.057525
C      3.439391    0.681717   -1.404301
C      3.854054   -0.590276   -1.103656
C      2.997605   -1.449440   -0.455759
C      1.717014   -1.017353   -0.111806
C      1.269863    0.253612   -0.399365
C      0.025528    0.983870   -0.178125
C     -1.163850    0.124664   -0.016685
C     -1.350403   -1.179349    0.372029
C     -2.629624   -1.735106    0.431180
C     -3.746947   -0.996257    0.102352
C     -3.555073    0.313324   -0.287619
C     -2.287818    0.858995   -0.344699
C     -0.318221   -2.124567    0.757434
C      0.985120   -2.059597    0.553969
C      0.144350    1.852196    1.015271
N     -0.941348    2.657058    1.425399
O      1.220115    1.859132    1.650414
H      1.889814    2.094513   -1.311997
H      4.138034    1.354393   -1.922568
H      4.861629   -0.880129   -1.392519
H      3.354285   -2.440175   -0.234779
H     -0.162792    1.602494   -1.104569
H     -2.740620   -2.753449    0.737812
H     -4.752056   -1.398487    0.138129
H     -4.432844    0.914088   -0.552261
H     -2.192731    1.908040   -0.662294
H     -0.688538   -2.992331    1.280961
H      1.602588   -2.877490    0.922955
H     -1.118886    3.597224    0.979648
H     -1.596388    2.354100    2.172975
