50

C     -4.522490    4.051438   -0.643622
O     -4.997739    2.749914   -0.419529
C     -4.122618    1.673169   -0.270788
C     -2.767255    1.907207   -0.347782
C     -1.859261    0.875740   -0.207309
N     -0.435857    1.126769   -0.289479
C      0.422952   -0.009913   -0.124494
C      1.853318    0.231287   -0.210871
C      2.404502    1.473722   -0.444721
C      3.753786    1.678506   -0.523409
C      4.627466    0.636355   -0.369828
N      5.961786    0.820971   -0.443528
C      6.838823   -0.181642   -0.295841
N      8.252853    0.042128   -0.378873
N      6.346080   -1.398329   -0.068195
C      5.002648   -1.638461    0.015442
N      4.577898   -2.969800    0.261438
C      4.101262   -0.633198   -0.132029
C      2.730168   -0.851924   -0.050282
C      2.157452   -2.194886    0.204204
C     -2.369470   -0.386450    0.011431
C     -3.733037   -0.621797    0.088875
O     -4.248679   -1.880009    0.307120
C     -3.412530   -3.017399    0.466698
C     -4.623541    0.416200   -0.053154
O     -6.006057    0.225843    0.017569
C     -6.701037    0.320216    1.260918
H     -5.404810    4.726117   -0.759468
H     -3.937800    4.371582    0.225258
H     -3.852560    4.105356   -1.538948
H     -2.363073    2.897967   -0.519595
H     -0.147243    2.090646   -0.458065
H      0.104947   -0.523698    0.815651
H      0.123352   -0.717936   -0.957121
H      1.784360    2.357628   -0.578918
H      4.163065    2.664407   -0.708119
H      8.828769   -0.620939   -0.920232
H      8.708438    0.843334    0.085025
H      4.327477   -3.258518    1.210528
H      4.554006   -3.635950   -0.528506
H      1.020735   -2.124395    0.088677
H      2.211768   -2.499629    1.287068
H      2.403507   -2.965405   -0.518183
H     -1.678996   -1.226365    0.127035
H     -2.584020   -3.008954   -0.275850
H     -3.994083   -3.954000    0.316260
H     -2.969587   -3.043036    1.461712
H     -6.778058   -0.691288    1.714701
H     -6.062914    0.959666    1.929527
H     -7.688704    0.807752    1.141601
