36

C     -2.434711    1.415976    0.079743
C     -1.967790    2.714571    0.332322
C     -0.593315    2.979037    0.305571
C      0.347936    2.008942    0.039870
C     -0.109936    0.730336   -0.202995
C     -1.475740    0.489058   -0.175017
N     -2.041070   -0.788533   -0.523459
C     -1.549317   -1.630835   -1.494482
C     -2.380747   -2.674922   -1.516031
N     -3.351862   -2.466294   -0.575317
C     -3.129227   -1.265569    0.054185
C     -3.892740   -0.678225    1.170043
C     -0.333620   -1.423080   -2.306119
N      0.817612   -1.111437   -1.448635
C      0.975634   -0.191242   -0.511787
C      2.272582   -0.027212    0.095366
C      3.387844   -0.627435   -0.525762
C      4.635885   -0.687945    0.011231
C      4.846755   -0.133068    1.240966
C      3.788585    0.456684    1.879520
C      2.509167    0.508710    1.317210
Cl     1.248020    1.086160    2.425168
Cl    -0.000645    4.587588    0.620916
H     -3.465830    1.180929    0.029773
H     -2.693560    3.467671    0.539775
H      1.409637    2.187114   -0.036581
H     -2.347309   -3.547692   -2.133772
H     -4.903844   -0.344927    0.956760
H     -4.095831   -1.588362    1.842574
H     -3.300236   -0.068702    1.884441
H     -0.526957   -0.636424   -3.044649
H     -0.077101   -2.391904   -2.780471
H      3.174403   -1.064305   -1.520497
H      5.441323   -1.181511   -0.558335
H      5.845403   -0.181322    1.664192
H      3.970602    0.898173    2.864285
