42

C     -0.903307    2.191926    0.591870
C     -1.427112    3.356842    0.035796
Cl    -0.877251    4.907584    0.654166
C     -2.355919    3.279573   -0.976974
C     -2.748044    2.032870   -1.413705
C     -2.229381    0.852620   -0.859097
C     -1.291705    0.923607    0.149847
C     -0.673894   -0.310084    0.592684
C     -1.577874   -1.489517    0.485747
C     -2.518274   -1.547666   -0.522812
C     -3.253347   -2.708483   -0.728100
C     -3.088365   -3.817030    0.044164
C     -2.161228   -3.772683    1.056928
C     -1.413401   -2.608838    1.270039
N     -2.863659   -0.356530   -1.232791
C      0.363817   -0.336333    1.614076
C      1.677423    0.349783    1.380893
C      2.390270   -0.240287    0.180641
N      3.679355    0.383576   -0.033630
C      4.381452   -0.138080   -1.158081
C      3.667808    1.794563    0.103803
H     -0.225144    2.284631    1.397784
H     -2.769900    4.159071   -1.421457
H     -3.478859    1.939046   -2.209928
H      0.008264   -0.544578   -0.402749
H     -3.983341   -2.709038   -1.542946
H     -3.673400   -4.707860   -0.137405
H     -2.012379   -4.648322    1.692005
H     -0.715607   -2.656556    2.102317
H     -3.572035   -0.420705   -2.002400
H     -0.039065   -0.075180    2.653130
H      0.626110   -1.443576    1.784608
H      2.278928    0.130988    2.320978
H      1.681169    1.428014    1.271712
H      2.424771   -1.327892    0.279275
H      1.798302    0.021518   -0.718570
H      3.987040   -1.100390   -1.530973
H      5.475182   -0.231414   -1.010955
H      4.236811    0.586851   -2.012511
H      2.890307    2.236771   -0.537273
H      3.638288    2.154224    1.151942
H      4.647195    2.176982   -0.303904
