40

C      4.581974   -0.012912    0.127917
N      3.447475   -0.068223    1.019657
C      2.641520   -1.235530    0.663431
C      1.304023   -1.088373    1.301114
C      0.483638   -0.085485    0.609225
C      1.498835    0.930818    0.004687
C      2.634130    1.158509    0.894069
C     -0.656566   -0.068546    0.015767
C     -1.516983   -1.241891   -0.216757
C     -0.928039   -2.493640   -0.165359
C     -1.723789   -3.600810   -0.394386
C     -3.068927   -3.547240   -0.675417
C     -3.643946   -2.299105   -0.729985
C     -2.838001   -1.156905   -0.496628
O     -3.456192    0.073813   -0.577777
C     -2.736409    1.213330   -0.372710
C     -3.431639    2.425315   -0.446590
C     -2.837195    3.640028   -0.228059
C     -1.512010    3.678234    0.077886
Cl    -0.672483    5.200071    0.383723
C     -0.799698    2.473889    0.150478
C     -1.376232    1.261288   -0.078038
H      4.791888    1.012377   -0.247685
H      5.477908   -0.314106    0.731480
H      4.517464   -0.716170   -0.717168
H      2.667985   -1.500140   -0.381043
H      3.168977   -2.075754    1.232229
H      0.841368   -1.972415    1.706609
H      1.580519   -0.550318    2.345111
H      1.989991    0.189956   -0.858339
H      1.109134    1.612757   -0.621263
H      2.382376    1.449640    1.930140
H      3.281998    1.946382    0.474074
H      0.118094   -2.572688   -0.025689
H     -1.271252   -4.586485   -0.353190
H     -3.685990   -4.410645   -0.851837
H     -4.687325   -2.188656   -0.945864
H     -4.492117    2.380019   -0.690178
H     -3.379620    4.576949   -0.288633
H      0.195118    2.562664    0.515481
