41

C      0.105291   -0.017723    1.935769
C     -0.267794   -0.281383    3.229231
Cl     0.890839    0.082299    4.514179
C     -1.506380   -0.815616    3.550192
C     -2.403304   -1.095927    2.542268
C     -2.057480   -0.842935    1.243780
C     -0.816653   -0.308821    0.932927
C     -0.298422    0.014806   -0.403957
N     -0.925604    0.363047   -1.484236
C     -2.308102    0.546363   -1.734428
C     -3.384055   -0.049847   -1.161932
S     -3.407492   -1.294541    0.139298
C     -4.660730    0.279981   -1.563938
C     -4.903588    1.214397   -2.548971
C     -3.828382    1.829683   -3.141266
C     -2.562931    1.490015   -2.729581
N      1.115994   -0.086617   -0.456688
C      1.765605   -1.358605   -0.289938
C      3.187101   -1.273177   -0.867477
N      3.882487   -0.279744   -0.094860
C      3.279399    1.015200   -0.108306
C      1.907254    1.092006   -0.682171
C      4.306142   -0.730629    1.197026
H      1.050827    0.396218    1.629504
H     -1.698098   -0.984100    4.598433
H     -3.372265   -1.511536    2.766382
H     -5.506328   -0.202248   -1.099864
H     -5.901210    1.479572   -2.870851
H     -3.985648    2.560553   -3.910188
H     -1.683974    1.964537   -3.184288
H      1.896978   -1.670299    0.760317
H      1.245098   -2.171625   -0.836784
H      3.158054   -0.973520   -1.924689
H      3.670862   -2.246350   -0.693286
H      3.952509    1.668219   -0.741390
H      3.256241    1.489236    0.908592
H      2.016975    1.238089   -1.798240
H      1.402584    2.001614   -0.241107
H      5.341258   -0.345933    1.414506
H      3.671245   -0.347080    2.022491
H      4.375697   -1.837579    1.183542
