40

C     -0.873817   -2.375583    1.322983
C     -1.474393   -1.543030    0.411293
C     -1.105844   -0.172116    0.190616
N     -1.897706    0.539512   -0.592859
O     -1.644541    1.858770   -0.874270
C     -2.340334    2.910607   -0.253843
C     -1.870754    4.263824   -0.740031
N     -2.595813    5.336947   -0.092764
C      0.086006    0.545582    0.650181
C      1.370263    0.237974   -0.015316
C      1.864207   -1.171475    0.047798
C      3.205697   -1.191498   -0.723350
O      4.022761   -0.292234   -0.038867
C      5.285253   -0.195615   -0.618366
C     -2.492410   -2.123468   -0.355570
C     -2.839732   -3.438812   -0.181880
C     -2.228276   -4.263449    0.735846
C     -1.225573   -3.715751    1.501297
Cl    -2.699344   -5.938636    0.928098
H     -0.095910   -1.950674    1.951609
H     -2.191152    2.876125    0.840464
H     -3.406358    2.799968   -0.484318
H     -2.046998    4.377821   -1.836462
H     -0.793991    4.408552   -0.513359
H     -2.954551    5.101528    0.840307
H     -1.986263    6.156652   -0.028361
H     -0.063823    1.664171    0.626416
H      0.185650    0.338849    1.754245
H      1.396087    0.593952   -1.083897
H      2.202204    0.860079    0.453195
H      1.199848   -1.835365   -0.536782
H      2.016935   -1.521293    1.070099
H      3.590208   -2.222724   -0.715184
H      2.946022   -0.839163   -1.743418
H      5.857175    0.537730   -0.007709
H      5.737264   -1.199053   -0.589921
H      5.176387    0.205995   -1.658077
H     -2.989840   -1.481933   -1.091471
H     -3.634993   -3.850606   -0.797177
H     -0.689553   -4.292161    2.248806
