37

C     -1.346749    1.588268    1.185017
C     -2.532019    2.266204    1.139367
Cl    -2.846754    3.576019    2.302904
C     -3.518717    1.982669    0.219031
C     -3.272560    0.967526   -0.678533
C     -2.060372    0.290275   -0.614012
C     -1.065937    0.549038    0.278758
C      0.270437    0.018050    0.584361
O      0.554125    0.032657    1.938016
C     -0.070622   -1.058534    2.519820
C      0.241245   -2.148937    1.480134
N      0.093048   -1.417007    0.313769
C      0.079398   -1.944905   -0.930589
C     -1.314283   -1.977118   -1.501861
O     -1.792985   -3.041288   -1.911110
N     -2.118838   -0.780891   -1.587220
C      1.436246    0.401986   -0.208788
C      1.818244    1.683538   -0.524828
Cl     0.678733    3.011921   -0.230396
C      3.027238    1.984939   -1.092544
C      3.939313    1.004786   -1.383269
C      3.581338   -0.279646   -1.077316
C      2.375718   -0.586742   -0.508118
H     -0.642074    1.863653    1.976418
H     -4.446506    2.545643    0.214768
H     -4.016458    0.702803   -1.424094
H     -1.187261   -0.897692    2.552676
H      0.358074   -1.283999    3.493978
H      1.226133   -2.549615    1.727322
H     -0.535958   -2.958022    1.557645
H      0.495839   -2.997728   -0.953833
H      0.651847   -1.451411   -1.771706
H     -2.760829   -0.721995   -2.370516
H      3.241768    3.045826   -1.307980
H      4.882315    1.275754   -1.831469
H      4.319732   -1.057137   -1.315200
H      2.258130   -1.638887   -0.260602
