62

C      2.313084   -2.708127    2.746590
C      1.906037   -1.487305    2.003013
C      0.496234   -1.024241    2.315624
C      0.169917   -0.345540    1.023773
C     -1.184812    0.230460    0.900004
C     -2.267911   -0.688256    1.346606
C     -3.493223    0.230671    1.497580
F     -4.548704   -0.402793    2.051619
F     -3.179772    1.387656    2.142996
C     -3.761312    0.582058    0.043990
C     -4.877370    0.201444   -0.500072
C     -5.240880    0.475753   -1.880075
O     -6.328195    0.099207   -2.389707
C     -4.243188    1.230204   -2.648481
C     -3.102415    1.626312   -2.108850
C     -2.750528    1.347333   -0.713351
C     -2.810502    2.747859   -0.044343
C     -1.355786    0.786700   -0.501305
F     -0.499883    1.872289   -0.567482
C     -0.907249   -0.132911   -1.580012
O     -0.778284    0.530447   -2.826178
C      0.389021   -0.825557   -1.346555
C      0.589698   -1.350161    0.023728
C     -0.183194   -2.653894    0.097332
C      1.972478   -1.653383    0.475568
O      2.233356   -3.050779    0.308310
C      3.084868   -0.956025   -0.121823
O      3.928266   -1.599237   -0.760923
C      3.320400    0.493399   -0.034730
O      4.567237    0.856700   -0.675425
C      4.941758    2.190191   -0.683434
C      6.213161    2.655919   -1.322389
O      4.157236    2.999608   -0.123940
H      2.081087   -3.657692    2.214798
H      1.819798   -2.724916    3.736194
H      3.432637   -2.702161    2.859978
H      2.575792   -0.643809    2.318288
H      0.508011   -0.217356    3.107084
H     -0.172068   -1.786105    2.673022
H      0.879282    0.507993    1.008685
H     -1.212635    1.088923    1.646976
H     -2.042043   -1.048422    2.342268
H     -2.569187   -1.458616    0.621786
H     -5.611128   -0.367457    0.104673
H     -4.465143    1.463561   -3.696934
H     -2.433802    2.173781   -2.756001
H     -2.011859    2.747942    0.751128
H     -3.797810    2.956698    0.365524
H     -2.467497    3.465043   -0.800154
H     -1.662122   -0.918907   -1.800765
H     -0.175553    1.292888   -2.775239
H      0.395601   -1.711686   -2.068384
H      1.195993   -0.190272   -1.755742
H     -0.991423   -2.673178   -0.692861
H     -0.668276   -2.866304    1.035674
H      0.456683   -3.520042   -0.167122
H      2.481631   -3.130347   -0.654866
H      2.549640    1.144364   -0.437127
H      3.535046    0.704769    1.056320
H      6.455841    3.633266   -0.859008
H      7.058491    1.976182   -1.110529
H      6.085470    2.795862   -2.415326
