27

C      1.887372   -0.358378    1.177649
C      0.930840   -0.013602    0.250484
C     -0.455026    0.171712    0.665153
C     -1.432294   -0.798913    0.052761
C     -2.776641   -0.109858    0.116172
C     -2.507143    1.289314    0.562996
C     -1.029881    1.504884    0.308983
N     -1.069890   -1.141393   -1.305142
C      1.355312    0.141865   -1.050638
C      2.692889   -0.045508   -1.391035
C      3.635083   -0.390792   -0.446442
C      3.211706   -0.546240    0.853798
H      1.547414   -0.482325    2.216785
H     -0.546114    0.047767    1.773095
H     -1.420520   -1.723274    0.698547
H     -3.403101   -0.646312    0.882551
H     -3.330167   -0.187562   -0.836231
H     -3.136709    2.040858    0.052138
H     -2.631953    1.330648    1.679777
H     -0.822725    1.809063   -0.732857
H     -0.677632    2.322015    0.986020
H     -0.374180   -1.917904   -1.319737
H     -1.924541   -1.436253   -1.847382
H      0.638991    0.416528   -1.828319
H      3.034346    0.078176   -2.430241
H      4.689626   -0.537283   -0.721612
H      3.914937   -0.817233    1.632727
