36

C     -0.624019    3.326707   -0.215412
C      0.382986    3.904690    0.524956
C      1.305497    3.136449    1.195940
C      1.239240    1.755673    1.140054
C      0.238139    1.157869    0.404069
C     -0.673372    1.951332   -0.259041
S     -2.066549    1.481886   -1.288318
C     -2.666585   -0.066788   -0.691668
C     -2.026373   -1.101241   -0.071750
C     -2.738770   -2.241912    0.309316
C     -4.088442   -2.315501    0.055885
C     -4.751218   -1.273508   -0.572716
C     -4.028154   -0.161874   -0.937944
C     -0.636826   -1.180282    0.262982
C      0.343556   -0.313410    0.472372
C      1.676320   -0.873437    0.804099
N      2.704776   -0.483912   -0.139392
C      2.528307   -1.064335   -1.439973
C      4.014663   -0.798409    0.425695
H     -1.364755    3.938871   -0.755025
H      0.431454    4.998387    0.567196
H      2.092107    3.573060    1.773251
H      1.931892    1.115953    1.641511
H     -2.181312   -3.020770    0.792014
H     -4.588560   -3.226421    0.375253
H     -5.795135   -1.384606   -0.743123
H     -4.557905    0.630828   -1.421083
H     -0.298029   -2.225993    0.375807
H      1.595410   -1.992896    0.601404
H      1.956561   -0.842078    1.850313
H      1.504908   -1.351814   -1.693166
H      2.984440   -0.342351   -2.179963
H      3.161888   -1.985608   -1.495821
H      4.526957    0.122015    0.805712
H      4.594422   -1.317216   -0.343415
H      3.872482   -1.529360    1.269634
