43

C     -0.231006   -0.329904    2.435362
C     -0.826985   -0.216344    3.709701
C     -2.165258    0.053781    3.821298
C     -2.873870    0.203172    2.666211
C     -2.292147    0.094579    1.379477
C     -0.976798   -0.167982    1.271840
C     -0.314756   -0.499550   -0.010736
C     -1.256923   -0.547476   -1.163709
C     -2.595058   -0.279975   -0.994540
C     -3.449912   -0.454062   -2.092997
C     -3.028154   -0.871278   -3.323111
C     -1.693612   -1.125876   -3.461747
C     -0.800681   -0.967914   -2.391043
C     -3.168906    0.263705    0.222858
O     -3.581775    1.600800    0.070404
C      0.972600   -0.367267   -0.164324
C      1.825689   -0.671254   -1.300571
C      3.318515   -0.615900   -0.803391
N      3.657831    0.760190   -0.659656
C      4.804700    0.895716    0.209887
C      2.521395    1.509686   -0.146352
C      1.741569    0.539456    0.816120
H      0.779896   -0.634302    2.426955
H     -0.249267   -0.338170    4.608527
H     -2.660724    0.148956    4.785236
H     -3.944284    0.417582    2.714580
H     -4.519147   -0.243871   -1.959304
H     -3.731144   -0.992194   -4.148316
H     -1.332690   -1.452343   -4.412246
H      0.190486   -1.198955   -2.614851
H     -4.119942   -0.318928    0.483326
H     -4.516812    1.594340   -0.279264
H      1.740609   -1.727065   -1.680657
H      1.839069    0.059070   -2.119173
H      3.921130   -1.060160   -1.634504
H      3.394445   -1.186335    0.117064
H      4.432036    1.025727    1.265509
H      5.441929    1.748135   -0.062884
H      5.357306   -0.078716    0.183936
H      2.851894    2.338570    0.482481
H      1.908958    1.847713   -0.960154
H      1.110917    1.203395    1.371219
H      2.518875    0.041248    1.341540
