46

C     -2.018126   -0.231992    0.155178
C     -1.482539   -0.473383    1.550849
C     -0.194515   -1.248088    1.503759
O      0.843292   -0.620263    0.793815
C      2.096764   -1.204905    0.657018
C      2.313071   -2.435712    1.238378
C      3.552191   -3.055867    1.125087
C      4.592470   -2.468932    0.437036
C      4.375887   -1.230082   -0.148463
C      5.416040   -0.644664   -0.835317
C      5.229044    0.583782   -1.425331
C      4.015461    1.214349   -1.326737
C      2.978265    0.601861   -0.626549
C      3.133342   -0.624319   -0.026377
C     -3.304436    0.522505    0.189736
C     -4.011037    0.639060    1.343148
C     -5.218067    1.344065    1.377266
C     -5.707439    1.932764    0.232609
C     -4.976088    1.803406   -0.926441
C     -3.786322    1.107544   -0.956727
N     -1.005970    0.501895   -0.544623
C     -0.714255    1.780518   -0.048214
C     -0.764475    0.190523   -1.888518
H     -2.207961   -1.175492   -0.388983
H     -1.371498    0.511912    2.029391
H     -2.206064   -1.077459    2.160369
H     -0.342064   -2.289320    1.141658
H      0.199180   -1.379909    2.553869
H      1.568187   -2.981170    1.798408
H      3.753072   -4.018704    1.568890
H      5.566372   -2.947792    0.343938
H      6.364260   -1.161716   -0.899566
H      6.068590    1.027477   -1.964358
H      3.840701    2.164835   -1.771773
H      2.023515    1.090462   -0.545147
H     -3.721388    0.221437    2.294152
H     -5.792944    1.443643    2.295912
H     -6.631151    2.479292    0.228980
H     -5.386466    2.282655   -1.829070
H     -3.274005    1.054359   -1.909573
H     -1.663931    2.393914   -0.109110
H     -0.031522    2.307468   -0.772875
H     -0.255235    1.877869    0.931821
H     -1.509175   -0.490641   -2.371728
H      0.197297   -0.402736   -1.934601
H     -0.550328    1.085553   -2.532099
