56

C     -0.286573    0.434069   -0.199753
O     -0.398223    1.758860   -0.804023
C     -1.497171    2.550558   -0.776235
O     -2.524018    2.168653   -0.175984
C     -1.529051    3.902571   -1.456429
C     -1.554293    5.031564   -0.471283
C      1.165637    0.151248   -0.556100
C      1.761813   -1.101761   -0.125482
N      3.160945   -1.081471   -0.612964
C      3.980308   -0.127076    0.053117
C      3.694051   -2.395421   -0.756102
C      1.437935    0.386413   -2.020860
C     -1.303152   -0.314732   -0.947862
C     -1.626221   -1.697059   -0.752232
C     -2.578497   -2.133229    0.171433
C     -2.927800   -3.449707    0.333750
C     -2.316681   -4.414307   -0.448368
C     -1.375481   -4.045856   -1.371472
C     -1.059044   -2.701048   -1.496479
C     -0.432476    0.637794    1.236955
C     -0.460579    1.889972    1.811292
C     -0.592684    2.110405    3.177426
C     -0.702372    1.044770    4.035933
C     -0.677628   -0.229177    3.510690
C     -0.546626   -0.409793    2.159022
H      0.000000    0.000000    0.000000
Cl     0.000000    0.000000    0.000000
H     -0.604856    3.953891   -2.076825
H     -2.409449    3.967343   -2.135841
H     -0.772813    4.948519    0.291710
H     -1.392351    6.000994   -1.033978
H     -2.549717    5.100278   -0.009436
H      1.725928    0.997576   -0.034740
H      1.891550   -1.235214    0.970861
H      1.351821   -2.008880   -0.584156
H      4.357496    0.661804   -0.670023
H      3.469872    0.451368    0.862803
H      4.890019   -0.599485    0.531765
H      4.374309   -2.741472    0.027264
H      4.226499   -2.421248   -1.752273
H      2.840790   -3.122013   -0.902313
H      1.354032    1.470949   -2.257553
H      2.499124    0.087173   -2.249093
H      0.823864   -0.244058   -2.696000
H     -1.037157   -0.126887   -2.060318
H     -2.313513    0.224401   -0.932376
H     -3.065044   -1.396917    0.787122
H     -3.666376   -3.801469    1.047841
H     -2.573464   -5.463435   -0.338640
H     -0.897102   -4.788185   -1.986734
H     -0.301577   -2.479867   -2.257576
H     -0.346394    2.804078    1.239604
H     -0.610827    3.110573    3.599473
H     -0.803337    1.167590    5.089164
H     -0.763184   -1.060493    4.196840
H     -0.510263   -1.423157    1.815441
