52

C     -5.172797    1.296398    0.670605
C     -6.351547    1.979906    0.929292
C     -7.354297    1.834750   -0.009842
C     -7.203003    1.062148   -1.135590
C     -6.017907    0.386463   -1.377905
C     -4.990613    0.514137   -0.449036
N     -3.948748   -0.235453   -0.910067
C     -4.312076   -0.813036   -2.089684
O     -3.531619   -1.560501   -2.732784
N     -5.568073   -0.420355   -2.349855
C     -2.710269   -0.348846   -0.211007
C     -1.671376    0.679009   -0.572080
C     -0.428038    0.389089    0.284194
N      0.092444   -0.906104    0.055466
C      0.685207   -1.193105   -1.181582
C      2.179630   -0.916747   -1.287739
C      2.831767   -1.526546   -0.105983
C      4.271603   -1.489727    0.010494
C      5.200651   -0.405088    0.061816
C      6.567886   -0.634552    0.192059
C      7.498219    0.389919    0.244084
C      7.094852    1.691705    0.167331
F      7.960289    2.742048    0.212249
C      5.767503    1.949606    0.039518
C      4.824109    0.904334   -0.013060
O      4.824633   -2.679155    0.082842
C      2.211038   -0.955477    1.155488
C      0.768395   -1.451466    1.169299
H     -4.381118    1.409884    1.409290
H     -6.470168    2.585194    1.812297
H     -8.303906    2.349140    0.140199
H     -7.978441    0.933217   -1.887706
H     -6.101540   -0.710212   -3.190373
H     -2.908952   -0.248487    0.874723
H     -2.307085   -1.366094   -0.409681
H     -1.386143    0.669454   -1.633781
H     -1.968612    1.704780   -0.315322
H      0.289713    1.208415    0.138292
H     -0.792213    0.463396    1.337521
H      0.500416   -2.277662   -1.430020
H      0.133008   -0.637484   -1.991538
H      2.503240   -1.536594   -2.180423
H      2.315865    0.131969   -1.483233
H      2.500793   -2.624473   -0.129247
H      6.889061   -1.679241    0.253605
H      8.561939    0.155294    0.347140
H      5.409856    2.976533   -0.024848
H      3.804247    1.202511   -0.115884
H      2.768876   -1.394724    2.004900
H      2.212457    0.122205    1.103908
H      0.357239   -1.161887    2.151317
H      0.833608   -2.558487    1.174847
