63

C      2.080360    0.267198    0.043936
C      0.643899    0.160196   -0.441655
C      0.012554    0.841521    0.783244
C     -1.462385    0.911881    0.640286
C     -1.987239   -0.451073    0.358453
C     -3.491766   -0.382526    0.157068
C     -4.023118    0.015188    1.468637
C     -4.842253   -0.732444    2.171405
C     -5.275868   -2.041542    1.666619
O     -6.061339   -2.765541    2.331339
C     -4.779740   -2.479747    0.388319
C     -3.959279   -1.700144   -0.287634
C     -3.565613    1.310861    2.001030
C     -2.061366    1.444261    1.928400
C     -3.889181    0.622010   -0.905527
C     -1.339889   -1.212316   -0.738510
C      0.160805   -1.219834   -0.613656
O     -1.716894   -0.811151   -2.016946
C      0.743468    2.158501    0.736964
C      2.160640    1.727325    0.315474
O      2.951798    1.798722    1.485778
C      2.687856    0.633994    2.178169
N      2.188577   -0.273038    1.400423
C      2.955007    0.469452    3.640861
C      0.495492    0.987586   -1.664824
C      3.042056   -0.312075   -0.869767
C      3.318826   -0.012888   -2.267713
O      4.424354   -0.819770   -2.703221
C      5.680378   -0.722785   -2.126255
C      6.821189   -1.580931   -2.597599
O      5.832138    0.107704   -1.195236
O      3.751120   -1.220069   -0.363908
H      0.317163    0.249633    1.653912
H     -1.725642    1.665085   -0.131132
H     -1.851575   -1.056656    1.301586
H     -5.218066   -0.415031    3.127768
H     -5.068178   -3.439097   -0.029178
H     -3.605281   -2.061847   -1.242596
H     -3.904112    1.483000    3.049858
H     -4.008124    2.120371    1.402838
H     -1.650667    0.834729    2.762810
H     -1.762982    2.488873    2.132146
H     -3.067490    1.010641   -1.501557
H     -4.598977    0.144589   -1.641339
H     -4.452862    1.470128   -0.462936
H     -1.642248   -2.296647   -0.575649
H      0.517129   -1.939449    0.152314
H      0.539471   -1.576929   -1.618224
H     -1.488658   -1.526305   -2.660813
H      0.761368    2.682213    1.714616
H      0.309543    2.831740   -0.017427
H      2.503113    2.369789   -0.485360
H      3.177695   -0.582952    3.868013
H      3.764328    1.125752    3.986564
H      2.013491    0.763946    4.153498
H      0.234744    0.318354   -2.525798
H     -0.339714    1.726313   -1.605161
H      1.375402    1.572437   -1.963704
H      2.457910   -0.303732   -2.929479
H      3.615139    1.030323   -2.492815
H      7.181781   -2.232990   -1.767448
H      7.684712   -0.955824   -2.892072
H      6.436999   -2.218985   -3.417196
