39

C      0.362552   -0.610823   -0.886423
C     -0.165494    0.106300   -2.119865
C     -1.612566    0.385518   -1.969573
C     -2.698002    0.518233   -2.774458
N     -3.810601    0.769148   -2.040760
C     -3.421349    0.795623   -0.755232
C     -4.033873    0.995390    0.486274
C     -3.290984    0.951328    1.656592
C     -1.929349    0.712977    1.669617
C     -1.312597    0.513302    0.440394
C     -2.066903    0.561270   -0.693296
C      0.145415    0.264330    0.319854
C      0.788130   -0.272721    1.552405
C      2.223612   -0.537171    1.270222
C      2.648116   -0.459596   -0.150029
N      1.721516   -0.939680   -1.123493
C      1.853058   -2.384747   -1.163583
C      3.131215    0.312893    2.140639
C      2.917508    1.739541    1.947101
N      2.740309    2.894623    1.769975
H     -0.233882   -1.528772   -0.725615
H     -0.038031   -0.557721   -2.999990
H      0.419056    1.021393   -2.315865
H     -2.689953    0.437852   -3.851299
H     -4.775443    0.915697   -2.368919
H     -5.094657    1.183446    0.507369
H     -3.759957    1.106650    2.636041
H     -1.318376    0.669840    2.536904
H      0.625969    1.268666    0.122117
H      0.247951   -1.160205    1.939241
H      0.733624    0.545776    2.327612
H      2.429140   -1.597582    1.608744
H      3.620794   -1.024900   -0.231635
H      2.859581    0.619110   -0.389473
H      0.926651   -2.880675   -1.568318
H      2.676516   -2.738030   -1.785402
H      1.963846   -2.803537   -0.139550
H      4.205548    0.116777    1.900395
H      3.011911    0.090476    3.221278
