30

C     -0.662431    1.644908   -0.282986
C     -1.646338    2.580399   -0.050182
Cl    -1.271575    4.260447   -0.434978
C     -2.864544    2.189300    0.468254
C     -3.173314    0.874756    0.777542
C     -2.180017   -0.053451    0.538108
C     -0.952313    0.306744    0.027274
C      0.189164   -0.537575   -0.271699
N      0.015669   -1.731668   -0.788607
C     -1.153371   -2.477878   -1.155499
C     -2.174688   -2.490852   -0.072770
N     -2.633705   -1.412606    0.754366
O     -2.699902   -3.588458    0.140976
C      1.535293   -0.066059   -0.117016
C      2.522604   -0.793068   -0.810204
C      3.859317   -0.609425   -0.690531
C      4.279006    0.371035    0.182929
C      3.367217    1.105550    0.885138
C      1.988937    0.883502    0.737270
Cl     0.952368    1.729426    1.904634
H      0.303501    1.846093   -0.724760
H     -3.614182    2.944019    0.641612
H     -4.086037    0.516145    1.178201
H     -0.869321   -3.513068   -1.370575
H     -1.603083   -2.029318   -2.046885
H     -3.302460   -1.556678    1.504801
H      2.204678   -1.581208   -1.513562
H      4.592653   -1.202006   -1.252896
H      5.360428    0.514628    0.271013
H      3.716445    1.876367    1.571031
