39

C     -0.456662    0.421752   -1.839484
C     -0.839968    1.127168   -2.956021
C     -2.031065    1.862931   -2.951902
C     -2.845630    1.902034   -1.842856
C     -2.465950    1.196475   -0.719968
C     -1.291868    0.476076   -0.732665
C     -0.733983   -0.279126    0.296461
C     -1.540171   -0.964905    1.229345
C     -2.811251   -0.679408    1.679850
C     -3.627055    0.395934    1.307601
C     -3.391217    1.311842    0.325299
C     -3.451845   -1.485506    2.619212
C     -2.800974   -2.590532    3.107741
C     -1.531862   -2.872768    2.656142
C     -0.891256   -2.085564    1.730876
N      0.480237   -0.379716    0.476280
O      1.626542    0.042976   -0.041283
C      2.727305   -0.842975   -0.141887
C      3.932141   -0.167120   -0.756566
N      4.366705    0.971846    0.032504
C      5.530192    1.537147   -0.658798
H      0.434261   -0.172177   -1.784800
H     -0.206790    1.106209   -3.840980
H     -2.304223    2.407519   -3.846946
H     -3.780205    2.464412   -1.803890
H     -4.541381    0.515447    1.855657
H     -3.948718    2.237268    0.304158
H     -4.446277   -1.178763    2.908949
H     -3.300949   -3.215011    3.837388
H     -0.996513   -3.754157    3.037462
H      0.103328   -2.268799    1.350713
H      2.962670   -1.240993    0.866497
H      2.478258   -1.717231   -0.772519
H      4.747644   -0.917582   -0.791327
H      3.685941    0.158552   -1.786408
H      3.627758    1.665450    0.176003
H      6.073718    2.236224    0.013482
H      6.236200    0.738405   -0.937505
H      5.222912    2.036669   -1.605814
