12

O     -0.632033   -0.583918   -0.452927
C      0.317507   -0.399117    0.519551
C      1.665362    0.018501   -0.063130
F      2.041026   -1.022050   -0.912632
F      2.553681    0.058917    0.994436
F      1.576242    1.211617   -0.727011
F      0.546406   -1.508449    1.292617
C     -1.714627    0.244073   -0.381297
F     -2.930416   -0.416879   -0.362462
F     -1.725576    1.012596   -1.554044
H      0.000213    0.420667    1.196310
H     -1.697785    0.964043    0.450590
