33

C     -1.872634   -0.832074    0.119389
C     -3.080429   -0.288746    0.504623
C     -4.099560   -1.154618    1.167559
C     -3.342039    1.045813    0.277629
C     -2.407333    1.852555   -0.333582
C     -1.201635    1.271455   -0.708269
C     -0.920236   -0.047991   -0.493711
C      0.430780   -0.330310   -1.007558
C      1.014576    0.972193   -1.350287
C      2.076294    1.492758   -0.457313
C      2.821749    0.461817    0.319692
N      2.628947   -0.883228   -0.129621
C      1.211724   -1.172832   -0.046921
C      3.342327   -1.756346    0.795892
N     -0.111003    1.894581   -1.340316
H     -1.646538   -1.883598    0.289608
H     -3.698954   -2.167783    1.295523
H     -4.947879   -1.247055    0.428196
H     -4.461001   -0.682078    2.079807
H     -4.309260    1.469063    0.589188
H     -2.615392    2.903942   -0.511571
H      0.294040   -0.945686   -1.944460
H      1.384458    0.972999   -2.417699
H      2.820937    2.067569   -1.059185
H      1.675761    2.239675    0.286805
H      2.554806    0.494328    1.414950
H      3.934641    0.652157    0.297416
H      1.085555   -2.251078   -0.279741
H      0.805744   -1.031697    0.981068
H      3.945193   -1.178717    1.531034
H      4.072369   -2.321693    0.175114
H      2.665702   -2.483775    1.287071
H     -0.051711    2.868403   -1.760333
