67

C     -1.884796   -0.379121    0.288089
C     -0.553788   -0.077589   -0.362674
C      0.257425   -1.096104    0.485348
C      1.651984   -0.979619    0.004257
C      2.185182    0.276470    0.732620
C      3.464822    0.608437    0.068642
C      4.390410   -0.497266    0.531819
C      5.566315   -0.239176    1.053694
C      6.062956    1.130178    1.222116
O      7.190424    1.360142    1.724597
C      5.212609    2.222802    0.790306
C      4.029353    1.926854    0.266052
C      3.985038   -1.899725    0.411627
C      2.521185   -2.143741    0.351410
F      4.510129   -2.689046    1.430890
C      3.435758    0.396818   -1.459056
F      2.503205   -0.245209    2.009190
C      1.147249    1.283824    0.933494
C      0.001906    1.261998   -0.052273
O      1.549327    2.606174    1.054972
C     -0.490295   -2.344610    0.192067
C     -1.951576   -1.854830    0.162932
C     -2.619196   -2.454616   -1.001809
C     -0.423293   -0.373546   -1.800072
C     -2.977668    0.439403   -0.172877
C     -3.622332    0.582501   -1.472965
O     -4.830298    1.353012   -1.329662
C     -5.594399    1.601434   -2.465840
C     -6.832592    2.397011   -2.289316
O     -5.204663    1.148083   -3.563208
O     -3.489313    1.184724    0.716615
O     -1.588994   -0.091059    1.695849
C     -2.502077   -0.276041    2.698110
C     -2.176673    0.040938    4.134671
O     -3.633068   -0.723279    2.381180
H      0.150855   -0.790075    1.524413
H      1.632256   -0.848392   -1.075007
H      6.249017   -1.021635    1.395141
H      5.547798    3.239891    0.899454
H      3.451532    2.803577   -0.061507
H      4.465829   -2.297494   -0.529205
H      2.299114   -2.961350   -0.375014
H      2.137805   -2.540736    1.338680
H      4.393336    0.866483   -1.848404
H      3.513846   -0.648995   -1.744742
H      2.644574    0.989350   -1.942417
H      0.612319    1.105181    1.927907
H      0.351930    1.796491   -0.961941
H     -0.823348    1.892665    0.372402
H      0.962617    3.244302    0.588172
H     -0.328100   -3.026498    1.078429
H     -0.193843   -2.865627   -0.709524
H     -2.429219   -2.331576    1.083071
H     -2.479685   -3.588659   -1.023275
H     -3.748508   -2.385111   -0.937251
H     -2.335595   -2.136794   -1.996470
H      0.395039    0.300465   -2.211232
H     -1.303948   -0.082708   -2.382144
H     -0.056481   -1.391300   -2.056504
H     -3.842182   -0.300193   -2.047295
H     -2.968026    1.325833   -2.054162
H     -7.444644    2.401435   -3.210370
H     -7.385801    2.009098   -1.405067
H     -6.596448    3.475580   -2.078503
H     -1.848602   -0.916297    4.590866
H     -3.015112    0.511671    4.650248
H     -1.298580    0.715193    4.161799
