44

C     -0.458606    0.568909   -0.602802
C     -1.301819    0.228812    0.633634
C     -1.460654   -1.264506    0.718249
C     -0.223585   -2.038052    0.447858
C      0.982291   -1.181899    0.237677
C      0.896663    0.102317   -0.276087
C      2.049968    0.838539   -0.443802
C      3.307570    0.363634   -0.124546
C      4.534555    1.204168   -0.325465
C      3.388302   -0.914589    0.386313
C      2.238121   -1.657465    0.556991
N     -2.468111   -1.618525   -0.235913
C     -2.638174   -3.009178   -0.456928
C     -2.399413   -0.810293   -1.415965
C     -1.028715   -0.293013   -1.726529
C     -0.735012    0.835507    1.879383
C     -0.449024    2.283887    1.612335
C     -1.051436    2.809207    0.351012
C     -0.628869    2.015698   -0.876393
H     -2.287079    0.703395    0.448514
H     -1.894749   -1.473546    1.735274
H     -0.039773   -2.693028    1.352428
H     -0.310725   -2.769499   -0.391254
H      1.997157    1.833503   -0.840181
H      5.103147    1.257187    0.647077
H      5.180640    0.821723   -1.121215
H      4.220439    2.228855   -0.545145
H      4.367849   -1.296765    0.639803
H      2.326422   -2.668324    0.963562
H     -2.492030   -3.272495   -1.532917
H     -2.043953   -3.652154    0.223521
H     -3.714071   -3.259272   -0.219103
H     -3.108096    0.028494   -1.294851
H     -2.737714   -1.407125   -2.266636
H     -0.335201   -1.062045   -2.070354
H     -1.150332    0.412829   -2.599621
H      0.182484    0.311462    2.230664
H     -1.486438    0.728077    2.678212
H      0.643011    2.479152    1.570825
H     -0.841877    2.897882    2.447867
H     -2.153534    2.939167    0.413237
H     -0.642637    3.837780    0.196038
H      0.182079    2.510802   -1.429312
H     -1.519071    2.100784   -1.575454
