29

N     -5.042041    1.132046    0.486769
C     -3.802949    0.420294    0.301107
C     -3.279841    0.213738   -0.956825
C     -2.097854   -0.460951   -1.187358
C     -1.402478   -0.955248   -0.100129
C     -1.906651   -0.760836    1.170863
C     -3.096968   -0.080022    1.385806
S      0.091761   -1.811579   -0.348806
O      0.221842   -2.816988    0.768228
O      0.066617   -2.566962   -1.667620
C      1.478709   -0.792711   -0.338981
C      2.124229   -0.559983    0.877797
C      3.227378    0.238670    0.944440
C      3.740158    0.841816   -0.188750
N      4.880601    1.658824   -0.076471
C      3.103165    0.612326   -1.390264
C      1.988844   -0.192063   -1.469410
H     -5.911582    0.889941    0.004016
H     -4.992973    1.933718    1.165436
H     -3.865660    0.623654   -1.791137
H     -1.744142   -0.586421   -2.216181
H     -1.396367   -1.130977    2.061851
H     -3.504879    0.079858    2.381738
H      1.756727   -1.011410    1.786197
H      3.737260    0.425537    1.890213
H      5.612874    1.678119   -0.817948
H      5.014449    2.265659    0.759373
H      3.513000    1.088478   -2.266303
H      1.486772   -0.376525   -2.398431
