44

H      0.000000    0.000000    0.000000
C     -1.666576   -2.010774    1.430133
C     -2.111027   -1.115655    0.483169
C     -0.940350   -0.264571    0.071546
C     -0.964068    1.170904   -0.248050
C      0.108427    1.770472    0.341605
C      0.264229    3.122933    0.093695
C     -0.652436    3.805313   -0.719866
C     -1.723501    3.133152   -1.283558
C     -1.916968    1.785681   -1.065204
S     -3.367420    1.090840   -1.833958
C     -4.119480   -0.251680   -0.969756
C     -3.384275   -1.032251   -0.008068
C     -4.267495   -1.977134    0.548844
C     -3.874282   -2.892242    1.496463
C     -2.572609   -2.914387    1.941520
C      0.200207   -0.866105   -0.042600
C      1.420739   -0.189354   -0.437939
C      2.656187   -0.406529    0.376852
N      3.777787    0.330194   -0.165324
C      4.228522   -0.173694   -1.437363
C      4.850902    0.266870    0.808803
Cl     0.000000    0.000000    0.000000
H     -0.633864   -1.972565    1.754002
H      0.733337    1.244699    1.014784
H      1.080716    3.651987    0.519198
H     -0.497569    4.865979   -0.891162
H     -2.439095    3.666744   -1.915768
H     -5.036843    0.178932   -0.438029
H     -4.639331   -0.924653   -1.748226
H     -5.291378   -1.989751    0.224768
H     -4.587863   -3.619848    1.914920
H     -2.206532   -3.604816    2.677116
H      0.252364   -1.930784    0.158011
H      1.746995   -0.843672   -1.353720
H      1.397759    0.668358   -1.129707
H      2.580724   -0.147290    1.448388
H      2.988102   -1.481261    0.401143
H      4.268359   -1.280726   -1.401154
H      5.268572    0.220608   -1.597407
H      3.531896    0.152400   -2.224686
H      5.116197    1.274756    1.190445
H      5.788087   -0.145065    0.343838
H      4.632852   -0.366014    1.672301
