42

C     -3.979043    0.010724    1.728864
C     -5.067005    0.747107    2.169995
C     -5.803927    1.486029    1.281997
C     -5.454485    1.486412   -0.030803
C     -4.375228    0.750144   -0.441053
C     -3.577898   -0.023583    0.392863
N     -2.474443   -0.747894   -0.034677
C     -1.838200   -1.716787    0.841676
C     -0.407663   -1.224734    1.118539
N      0.242454   -1.213226   -0.126464
C      1.633108   -1.078766   -0.161122
C      2.031225    0.304973    0.299876
C      3.502502    0.487910    0.278792
C      4.250006    0.954202   -0.779501
N      5.550088    0.989622   -0.442227
C      6.609672    1.433492   -1.333351
N      5.624861    0.558480    0.793494
C      4.411388    0.239724    1.280795
C     -0.483565   -1.344081   -1.306030
C     -1.824841   -0.628543   -1.330844
Cl    -3.988125    0.787730   -2.139361
H     -3.439446   -0.544702    2.499139
H     -5.361658    0.760408    3.208148
H     -6.654338    2.061197    1.630602
H     -6.050982    2.079946   -0.726978
H     -1.732906   -2.675385    0.260370
H     -2.348266   -1.943973    1.761523
H     -0.518033   -0.222479    1.558057
H      0.035142   -1.965007    1.811890
H      2.091786   -1.344293   -1.132336
H      2.089898   -1.792359    0.587457
H      1.575710    0.540463    1.263146
H      1.590542    1.024684   -0.441318
H      3.826411    1.247377   -1.745046
H      6.920981    2.438171   -0.961524
H      7.509267    0.790442   -1.253189
H      6.248756    1.558849   -2.360546
H      4.149620   -0.139755    2.258764
H      0.104633   -0.934808   -2.163564
H     -0.609398   -2.435833   -1.547893
H     -1.591142    0.414101   -1.547920
H     -2.417455   -1.175981   -2.081875
