63

C      3.245859    0.622509   -2.396916
C      3.575745    0.290666   -0.913986
C      4.784664   -0.603118   -1.056690
C      5.472268   -1.092228    0.140990
C      6.060977    0.001989    0.984020
O      6.734420   -0.334802    2.147940
O      5.964100    1.199644    0.672224
C      2.414326   -0.438707   -0.321724
C      2.615902   -0.769423    1.117868
C      1.328484   -0.336185    1.851121
C      0.345970   -0.465672    0.750430
C     -0.979284    0.125117    0.951904
C     -1.836761   -0.224384   -0.273879
C     -1.163281    0.217306   -1.550341
C      0.262928   -0.238256   -1.584657
O      0.769322   -0.900431   -2.437973
C      1.081574    0.209759   -0.405194
C      1.123105    1.683120   -0.261740
C     -3.207185    0.345505   -0.181001
C     -3.122387    1.845385   -0.451869
C     -3.996600   -0.227305   -1.358290
C     -5.502820   -0.040476   -1.141735
C     -5.847280   -0.933433   -0.009488
O     -6.952722   -1.393591    0.077974
C     -4.795799   -1.231003    0.991213
C     -3.935855    0.036106    1.072517
C     -3.109004   -0.025585    2.312430
C     -1.726596   -0.487333    2.084852
O     -1.227866   -1.315868    2.778228
H      4.133545    1.267183   -2.691977
H      3.347121   -0.304585   -2.947590
H      2.380220    1.234781   -2.530706
H      3.859118    1.136753   -0.329294
H      4.522178   -1.496639   -1.717163
H      5.572258   -0.090054   -1.700390
H      6.409455   -1.689304   -0.154331
H      4.922033   -1.821503    0.756549
H      7.040719    0.346968    2.839124
H      2.384422   -1.428013   -0.925097
H      2.711910   -1.884405    1.281575
H      3.394320   -0.171820    1.583857
H      1.420213    0.643282    2.310228
H      1.112747   -1.095651    2.626062
H      0.232236   -1.528244    0.467328
H     -1.025821    1.215582    1.151937
H     -1.903777   -1.331546   -0.286974
H     -1.235984    1.302983   -1.737280
H     -1.677519   -0.295557   -2.388239
H      2.156460    2.049721   -0.380502
H      0.523639    2.230639   -1.020466
H      0.752568    1.959368    0.759016
H     -2.135953    2.270960   -0.184570
H     -3.922678    2.384848    0.091982
H     -3.268097    2.067239   -1.528436
H     -3.761320    0.303797   -2.302481
H     -3.836065   -1.320166   -1.462920
H     -6.008094   -0.282078   -2.075226
H     -5.717367    1.012880   -0.824320
H     -5.227923   -1.367233    2.007998
H     -4.120814   -2.038081    0.699561
H     -4.695901    0.860467    1.221984
H     -3.650576   -0.668718    3.047214
H     -3.063480    1.006838    2.755318
