38

C      4.084382    0.215552    0.839426
C      5.316169    0.879804    0.768675
C      5.757490    1.434422   -0.408253
C      4.969814    1.333884   -1.542195
C      3.763320    0.676496   -1.448670
C      3.305315    0.108750   -0.256167
C      1.987865   -0.576113   -0.303347
N      1.623752   -1.419166    0.754733
C      0.403016   -2.117518    0.879074
C     -0.833274   -1.355496    1.117959
C     -1.248912   -0.349435    0.115348
N     -2.537745    0.206552    0.614854
C     -2.984482    1.200829   -0.340366
C     -4.187853    1.891788    0.239994
O     -5.133517    0.960486    0.593514
C     -4.868364   -0.320138    0.166889
C     -3.534417   -0.843839    0.685145
O      1.232953   -0.382493   -1.291787
Cl     7.300975    2.253123   -0.447334
H      3.762470   -0.205974    1.777369
H      5.934474    0.957576    1.662951
H      5.293403    1.759574   -2.474020
H      3.143584    0.595221   -2.333081
H      2.346423   -1.556374    1.559450
H      0.488413   -2.883741    1.727909
H      0.268801   -2.835021   -0.010051
H     -0.725717   -0.778441    2.109590
H     -1.708870   -2.076381    1.326635
H     -0.577389    0.555440    0.220785
H     -1.355326   -0.665519   -0.912883
H     -3.275609    0.729680   -1.282111
H     -2.131108    1.905217   -0.484239
H     -4.589041    2.675712   -0.438919
H     -3.878241    2.412668    1.192300
H     -4.890880   -0.463903   -0.917643
H     -5.656737   -0.980583    0.606218
H     -3.627821   -1.261016    1.710896
H     -3.237317   -1.681621    0.019947
