27

C     -2.301814    0.753552    0.870144
C     -3.215221   -0.153604    1.379320
C     -3.152787   -1.442795    0.888044
C     -2.237152   -1.838859   -0.063387
C     -1.343220   -0.910078   -0.547867
C     -1.374472    0.384412   -0.082641
C     -0.436653    1.390412   -0.580175
C      0.748501    0.832431   -1.245371
N      1.777117    0.742577   -0.263316
C      2.983235   -0.071933   -0.350434
C      2.802308   -1.440906    0.212753
C      1.394024    1.605667    0.819852
N      0.147596    2.196805    0.472087
O      2.037288    1.807016    1.883807
O      0.889609    0.478577   -2.460922
H     -2.301620    1.797111    1.222515
H     -3.928190    0.169565    2.125139
H     -3.881734   -2.141980    1.302767
H     -2.265042   -2.857146   -0.382483
H     -0.637970   -1.240177   -1.289154
H     -0.906299    2.108619   -1.298933
H      3.872534    0.462553    0.054861
H      3.193397   -0.195029   -1.450985
H      3.822179   -1.805107    0.528387
H      2.462843   -2.191149   -0.558732
H      2.071716   -1.500807    1.035723
H     -0.220173    3.060275    0.934993
