18

O     -0.267684    2.317572   -0.113886
C     -0.809152    1.224809   -0.075991
C     -0.031889    0.003387   -0.000905
C      1.273157   -0.009300    0.030572
O      2.121859   -1.143872    0.103320
C      3.436880   -0.697941    0.113746
N      3.431535    0.591678    0.053766
N      2.135463    1.098477   -0.000432
C     -0.745153   -1.286410    0.042067
C     -2.071066   -1.303472    0.011466
C     -2.868905   -0.085148   -0.063965
C     -2.284392    1.099519   -0.105103
H      4.344412   -1.311279    0.163693
H      1.892242    2.075994   -0.051557
H     -0.147383   -2.180180    0.097699
H     -2.600209   -2.247277    0.042741
H     -3.950665   -0.160060   -0.086100
H     -2.859049    2.013503   -0.161130
