34

C     -2.869271    1.725629   -0.183875
N     -2.849552    0.376409    0.301100
C     -4.109841   -0.270906   -0.078755
C     -1.727585   -0.390183   -0.204265
C     -1.367463   -1.492476    0.760178
C     -0.329148   -2.357635    0.021545
C      0.914261   -1.512708    0.074905
N      2.207207   -1.708079    0.335653
C      2.885387   -0.545823    0.242056
C      4.213438   -0.182366    0.409097
F      5.094282   -1.146604    0.737075
C      4.617621    1.118985    0.244802
C      3.738052    2.111838   -0.089487
F      4.200092    3.374176   -0.237204
C      2.404366    1.777731   -0.263582
C      2.008287    0.468132   -0.095677
C      0.759316   -0.175193   -0.195803
C     -0.546244    0.431284   -0.540513
H     -3.941677    2.052768   -0.188256
H     -2.542188    1.687854   -1.246920
H     -2.320933    2.433935    0.433630
H     -4.191514   -0.267889   -1.192281
H     -4.081929   -1.299398    0.322066
H     -4.942742    0.312162    0.326883
H     -2.121657   -0.933190   -1.118782
H     -0.848848   -1.018605    1.626818
H     -2.240802   -2.090592    1.077699
H     -0.232684   -3.289469    0.567380
H     -0.635620   -2.453589   -1.033608
H      2.627148   -2.630958    0.577897
H      5.674119    1.353084    0.387387
H      1.681447    2.525853   -0.525707
H     -0.523405    0.533594   -1.669533
H     -0.601921    1.482228   -0.181350
