55

C      4.699286   -0.516979   -0.100248
C      5.616212    0.211795    0.618927
C      6.061040    1.463712    0.290741
C      5.568028    2.084233   -0.858896
C      4.642661    1.306167   -1.552135
C      4.171378    0.111507   -1.302649
N      3.235566   -0.574725   -2.091047
C      3.041018   -2.019099   -2.096009
C      1.612156   -2.379885   -1.816751
N      0.767898   -1.245499   -1.557218
C      0.823256   -0.913901   -0.179667
C      0.006521    0.201899    0.325686
O      0.240403    1.447664   -0.181594
C     -1.454683   -0.169407    0.123298
O     -2.228919    0.733246    0.798759
C     -3.585627    0.403937    0.802165
C     -3.741505   -0.986849    1.456332
C     -4.914353   -1.038070    2.406448
C     -4.523698   -0.258015    3.654843
C     -3.988571    1.063288    3.208180
C     -4.269211    1.382566    1.769522
C     -4.202005    0.442234   -0.403506
C     -4.764268    0.493933   -1.476836
C      0.911443   -0.181059   -2.448927
C      2.298158    0.120042   -2.961442
F      6.961093    2.169176    1.026525
H      4.365231   -1.476100    0.174047
H      6.065896   -0.192437    1.542169
H      5.874215    3.050865   -1.173044
H      4.250323    1.820850   -2.479030
H      3.692015   -2.548651   -1.386629
H      3.334351   -2.358767   -3.128206
H      1.543002   -3.140134   -1.014809
H      1.207176   -2.861326   -2.732839
H      0.454337   -1.829694    0.430634
H      1.910543   -0.829912    0.146536
H      0.226104    0.279906    1.434876
H      0.741628    2.052423    0.415228
H     -1.630115    0.007737   -0.983734
H     -1.657451   -1.227308    0.276922
H     -2.857864   -1.315322    1.997481
H     -3.952223   -1.731505    0.643234
H     -5.039417   -2.093592    2.700052
H     -5.844734   -0.619149    1.971922
H     -3.833028   -0.874709    4.236180
H     -5.447259   -0.164940    4.247458
H     -4.520624    1.852876    3.808989
H     -2.914004    1.167646    3.455694
H     -5.373767    1.374346    1.581638
H     -3.868087    2.395748    1.553321
H     -5.315386    0.562932   -2.555254
H      0.363176    0.745946   -2.267502
H      0.362154   -0.553663   -3.417310
H      2.449385   -0.329326   -3.968645
H      2.431144    1.215963   -2.963881
