57

C     -0.757969   -0.646385    0.511594
C     -1.418854    0.349616   -0.461835
C     -2.892711    0.449350   -0.192991
C     -3.495410   -0.864059    0.019772
C     -4.534523   -1.279354   -0.644495
C     -5.199150   -0.481161   -1.673378
O     -6.188296   -0.860405   -2.311686
C     -4.618182    0.830836   -1.919115
C     -3.565137    1.221040   -1.226424
C     -2.856022   -1.816878    1.003813
C     -1.434902   -1.978322    0.440887
F     -3.444081   -3.036584    0.996552
C     -3.126116    1.232608    1.123096
C     -0.723380    1.684367   -0.377725
C      0.747870    1.607485   -0.613898
C      1.412280    0.515999    0.183428
C      0.628079   -0.786605   -0.028253
C      1.516286   -1.769347    0.599755
C      2.909447   -1.296979    0.146652
C      3.375750   -2.264012   -0.933095
C      2.705332    0.046362   -0.480132
C      3.812224    0.986371   -0.395225
C      4.710839    1.291768    0.717059
O      4.610229    0.528217    1.845071
O      4.029761    1.636567   -1.446261
O      2.281438   -0.108362   -1.842718
C      1.573823    0.842047    1.616688
O     -0.910526    2.334474    0.836824
F     -1.193278   -0.158381   -1.723713
H     -0.832977   -0.271609    1.532747
H     -4.979484   -2.271572   -0.466555
H     -5.063911    1.474812   -2.675550
H     -3.211450    2.242269   -1.509632
H     -2.820741   -1.401838    2.024449
H     -0.883032   -2.777955    0.931021
H     -1.603744   -2.189909   -0.655568
H     -4.145066    0.904435    1.488182
H     -3.227499    2.302724    0.937103
H     -2.430957    0.936252    1.907169
H     -1.138991    2.311416   -1.223125
H      1.010611    1.534543   -1.691782
H      1.191528    2.576877   -0.260482
H      0.561037   -0.971208   -1.110337
H      1.296415   -2.780532    0.170059
H      1.454963   -1.886078    1.685124
H      3.622838   -1.325125    0.960421
H      3.754271   -3.198253   -0.442082
H      2.563110   -2.522675   -1.628538
H      4.262017   -1.816981   -1.429004
H      4.524068    2.360661    1.050351
H      5.794480    1.330855    0.380905
H      4.899207    1.036607    2.634672
H      2.867715    0.368016   -2.448233
H      1.997131    0.012602    2.177779
H      2.205881    1.724826    1.718803
H      0.585908    1.066367    2.091156
H     -0.208152    3.020201    0.947608
