127

C     -0.858942    0.335398   -0.761674
C     -0.175597   -0.999499   -0.684236
C      1.320010   -0.907416   -0.486836
C      1.736830    0.013377    0.596666
C      1.116235    1.378999    0.394195
O      1.658309    2.060096   -0.673286
C     -0.372546    1.227177    0.328539
C      3.251698    0.091500    0.667296
C      3.813183   -0.885627   -0.254993
C      4.684680   -0.589949   -1.180068
C      5.164894    0.772412   -1.355450
O      5.996292    1.080234   -2.230551
C      4.617448    1.764411   -0.446336
C      3.743369    1.445576    0.475401
C      3.333802   -2.322419   -0.109063
F      3.736421   -2.853725    1.091116
C      1.825166   -2.321164   -0.239416
C      3.718576   -0.343890    2.069466
C     -0.871783   -1.692078    0.435497
C     -2.262545   -1.119858    0.479548
O     -2.547097   -0.485850    1.666408
C     -3.429955    0.514655    1.299445
O     -3.017432    0.984601    0.082622
C     -2.308775   -0.025947   -0.554727
C     -2.954336   -0.489923   -1.787935
O     -2.453509   -1.385282   -2.440580
C     -4.232356    0.087401   -2.313036
O     -4.616819   -0.521713   -3.502259
C     -3.488350    1.628944    2.324038
C     -4.813135   -0.113709    1.292596
C     -0.631489    1.023819   -2.088017
C     -0.858942    0.335398   -0.761674
C     -0.175597   -0.999499   -0.684236
C      1.320010   -0.907416   -0.486836
C      1.736830    0.013377    0.596666
C      1.116235    1.378999    0.394195
O      1.658309    2.060096   -0.673286
C     -0.372546    1.227177    0.328539
C      3.251698    0.091500    0.667296
C      3.813183   -0.885627   -0.254993
C      4.684680   -0.589949   -1.180068
C      5.164894    0.772412   -1.355450
O      5.996292    1.080234   -2.230551
C      4.617448    1.764411   -0.446336
C      3.743369    1.445576    0.475401
C      3.333802   -2.322419   -0.109063
F      3.736421   -2.853725    1.091116
C      1.825166   -2.321164   -0.239416
C      3.718576   -0.343890    2.069466
C     -0.871783   -1.692078    0.435497
C     -2.262545   -1.119858    0.479548
O     -2.547097   -0.485850    1.666408
C     -3.429955    0.514655    1.299445
O     -3.017432    0.984601    0.082622
C     -2.308775   -0.025947   -0.554727
C     -2.954336   -0.489923   -1.787935
O     -2.453509   -1.385282   -2.440580
C     -4.232356    0.087401   -2.313036
O     -4.616819   -0.521713   -3.502259
C     -3.488350    1.628944    2.324038
C     -4.813135   -0.113709    1.292596
C     -0.631489    1.023819   -2.088017
O     -0.001107    0.363137   -0.000000
H     -0.301732   -1.587936   -1.631472
H      1.752440   -0.584190   -1.449759
H      1.376331   -0.370806    1.557196
H      1.347429    1.966192    1.312272
H      1.613921    3.047262   -0.497155
H     -0.833955    2.252733    0.218855
H     -0.700402    0.898007    1.348551
H      5.025698   -1.411283   -1.803256
H      4.929105    2.823174   -0.511838
H      3.381469    2.281149    1.125997
H      3.750963   -2.934310   -0.920178
H      1.413510   -2.748528    0.696978
H      1.547328   -3.005264   -1.061133
H      3.815991    0.553280    2.714374
H      3.053142   -1.104346    2.492587
H      4.740576   -0.784364    2.001413
H     -0.967110   -2.777589    0.185860
H     -0.369292   -1.591905    1.410104
H     -3.042370   -1.896511    0.302661
H     -4.129412    1.176872   -2.497890
H     -5.035909   -0.124757   -1.581997
H     -5.152770    0.142289   -4.008750
H     -4.038087    2.474777    1.828336
H     -2.511786    1.915573    2.714855
H     -4.128744    1.294052    3.164645
H     -4.852956   -1.041889    0.698171
H     -5.594416    0.618839    0.972147
H     -5.048903   -0.370308    2.346154
H     -0.610758    2.110093   -1.912876
H      0.315683    0.668769   -2.527872
H     -1.427230    0.760371   -2.833948
H     -0.301732   -1.587936   -1.631472
H      1.752440   -0.584190   -1.449759
H      1.376331   -0.370806    1.557196
H      1.347429    1.966192    1.312272
H      1.613921    3.047262   -0.497155
H     -0.833955    2.252733    0.218855
H     -0.700402    0.898007    1.348551
H      5.025698   -1.411283   -1.803256
H      4.929105    2.823174   -0.511838
H      3.381469    2.281149    1.125997
H      3.750963   -2.934310   -0.920178
H      1.413510   -2.748528    0.696978
H      1.547328   -3.005264   -1.061133
H      3.815991    0.553280    2.714374
H      3.053142   -1.104346    2.492587
H      4.740576   -0.784364    2.001413
H     -0.967110   -2.777589    0.185860
H     -0.369292   -1.591905    1.410104
H     -3.042370   -1.896511    0.302661
H     -4.129412    1.176872   -2.497890
H     -5.035909   -0.124757   -1.581997
H     -5.152770    0.142289   -4.008750
H     -4.038087    2.474777    1.828336
H     -2.511786    1.915573    2.714855
H     -4.128744    1.294052    3.164645
H     -4.852956   -1.041889    0.698171
H     -5.594416    0.618839    0.972147
H     -5.048903   -0.370308    2.346154
H     -0.610758    2.110093   -1.912876
H      0.315683    0.668769   -2.527872
H     -1.427230    0.760371   -2.833948
H     -0.824985   -0.181947   -0.000000
H      0.826092   -0.181190    0.000000
