57

C      5.982067    0.356005    0.473965
C      4.593461    0.396665   -0.090162
N      3.899573   -0.818858    0.082131
C      4.307413   -1.943166   -0.656976
C      5.620000   -2.532403   -0.272352
C      2.471610   -0.663537    0.258630
C      1.803769   -0.181559   -1.000291
O      0.412134   -0.018521   -0.873289
C     -0.090934    0.884134    0.016814
O      0.695290    1.569345    0.713223
C     -1.565077    1.109294    0.216147
C     -2.121952    1.473723   -1.117462
C     -2.552185    2.895041   -1.270823
C     -3.503455    3.180838   -0.115197
C     -2.629318    3.238610    1.103916
C     -1.743426    2.069671    1.308374
C     -2.099792   -0.288302    0.557666
C     -3.573662   -0.316209    0.837214
C     -3.814955   -1.705910    1.453467
C     -3.553625   -2.783814    0.446652
C     -3.013724   -2.181884   -0.824317
C     -1.869392   -1.235937   -0.591679
H      6.047991   -0.468381    1.201654
H      6.156665    1.291310    1.068495
H      6.779871    0.344623   -0.294932
H      4.036953    1.209047    0.448760
H      4.623094    0.738966   -1.158666
H      3.538486   -2.761839   -0.513111
H      4.268310   -1.699996   -1.758973
H      6.505806   -1.983441   -0.568211
H      5.590585   -2.741971    0.830866
H      5.678268   -3.529030   -0.808575
H      2.082724   -1.682702    0.532546
H      2.345196    0.018639    1.121050
H      2.232455    0.848138   -1.188204
H      2.066382   -0.807555   -1.869931
H     -1.403095    1.263919   -1.954802
H     -3.018289    0.839107   -1.377452
H     -1.704254    3.612885   -1.284950
H     -3.106827    2.957043   -2.247917
H     -3.983015    4.173212   -0.225179
H     -4.235004    2.354977   -0.087764
H     -2.035424    4.194001    1.012641
H     -3.279995    3.417686    2.011871
H     -2.123697    1.494293    2.208004
H     -0.754985    2.473508    1.692812
H     -1.570093   -0.594308    1.482526
H     -3.909241    0.403615    1.585945
H     -4.191912   -0.170418   -0.065164
H     -4.754867   -1.770681    1.992920
H     -3.001475   -1.796345    2.232466
H     -2.874335   -3.584895    0.828653
H     -4.515354   -3.289328    0.167336
H     -2.625809   -2.981393   -1.512861
H     -3.859544   -1.708009   -1.361830
H     -1.692566   -0.729965   -1.561691
H     -0.966825   -1.837941   -0.367079
