67

C      1.958035   -0.419988    0.126940
O      2.411306   -1.693911   -0.185514
C      2.545863   -2.398715    0.988571
O      1.644712   -1.835845    1.899907
C      1.751422   -0.474938    1.622990
C      0.443096    0.248510    1.857337
C     -0.011582    0.780579    0.544143
C      0.601744   -0.113978   -0.462296
C     -0.150665   -1.306753   -0.888194
C     -1.594117   -1.396147   -0.636765
O     -2.268547   -1.097648   -1.845435
C     -2.157752   -0.484355    0.402771
C     -1.487390    0.841232    0.366118
C     -2.162168    1.747876    1.382912
C     -3.443175    2.236703    0.736809
F     -4.377061    2.651562    1.639055
C     -3.982025    1.086734   -0.091393
C     -4.744417    1.420405   -1.099799
C     -5.343391    0.436494   -1.997379
O     -6.072171    0.760312   -2.960787
C     -5.014835   -0.945782   -1.667968
C     -4.252298   -1.263275   -0.657412
C     -3.661342   -0.289929    0.230991
C     -4.283823   -0.549076    1.623504
C      0.839139    0.739011   -1.718522
C      2.312499   -3.900614    0.822694
C      3.914426   -2.277407    1.628608
C      2.902130    0.644270   -0.185406
O      2.607186    1.793731    0.086376
C      4.230604    0.442146   -0.823428
O      4.946878    1.619731   -0.962413
C      4.507141    2.688524   -1.700040
O      3.403278    2.611606   -2.285453
C      5.295630    3.959225   -1.839579
H      2.576942   -0.004245    2.158325
H     -0.248256   -0.442896    2.342024
H      0.636235    1.090742    2.540941
H      0.340811    1.852035    0.430491
H      0.340448   -2.195170   -0.386469
H      0.044394   -1.531467   -1.984229
H     -1.883446   -2.468467   -0.428434
H     -1.992766   -1.793179   -2.488164
H     -2.010149   -0.940163    1.392192
H     -1.673073    1.279855   -0.654225
H     -1.506531    2.601388    1.657713
H     -2.420445    1.130956    2.248595
H     -3.160991    3.030954    0.015162
H     -4.950056    2.489455   -1.289602
H     -5.433467   -1.751483   -2.306425
H     -4.085769   -2.362140   -0.525650
H     -4.676556    0.372096    2.065787
H     -3.523655   -0.996863    2.275820
H     -5.107120   -1.301411    1.553118
H      1.798655    0.390995   -2.142941
H      0.051618    0.506812   -2.481385
H      0.900030    1.803498   -1.502785
H      2.701462   -4.189927   -0.166323
H      1.218393   -4.079328    0.809325
H      2.812148   -4.433617    1.658835
H      4.696415   -2.780556    1.025383
H      3.848861   -2.866197    2.584047
H      4.169726   -1.254996    1.909129
H      4.819714   -0.223073   -0.156736
H      4.135107   -0.133707   -1.780686
H      4.532395    4.781214   -1.819447
H      5.956594    4.131726   -0.973776
H      5.784001    4.026867   -2.820138
