62

C     -2.346394   -0.707413    0.080073
C     -0.881384   -0.953942    0.344703
C     -0.421170    0.478204    0.517911
C      1.031916    0.571217    0.889190
C      1.802058   -0.035354   -0.243810
C      3.289072    0.034510   -0.001590
C      3.622924    1.469419    0.082371
C      4.497361    2.093989   -0.659714
C      5.237767    1.361197   -1.678156
O      6.083303    1.876895   -2.422226
C      4.932758   -0.054616   -1.790703
C      4.049192   -0.651526   -1.029860
C      2.869417    2.265398    1.108193
C      1.371383    2.067813    0.914021
F      3.135273    3.596240    0.921337
C      3.689482   -0.572308    1.328216
F      1.577566    0.818200   -1.341919
C      1.354927   -1.384175   -0.682540
C     -0.140705   -1.500176   -0.842393
O      1.881347   -2.430280    0.069986
C     -1.368009    0.984892    1.532927
C     -2.673381    0.290097    1.157635
O     -3.560478    1.161079    0.546110
C     -3.383262    1.076320   -0.811379
O     -2.530348    0.027571   -1.076935
C     -4.677457    0.820408   -1.568272
C     -2.822560    2.437643   -1.258569
C     -0.673150   -1.783239    1.559726
C     -3.159054   -1.934157    0.178255
C     -4.050868   -2.480145   -0.850739
O     -4.516952   -3.738609   -0.388023
O     -3.074998   -2.558417    1.226173
H     -0.569573    0.979282   -0.445064
H      1.208879    0.169406    1.876765
H      4.710957    3.166878   -0.556416
H      5.491763   -0.618366   -2.564033
H      3.926531   -1.730043   -1.234447
H      3.147113    1.978747    2.130188
H      0.875501    2.577089    1.741236
H      1.122148    2.501760   -0.076536
H      4.775202   -0.275733    1.458107
H      3.180172   -0.167603    2.196118
H      3.726723   -1.678545    1.266901
H      1.766048   -1.539302   -1.725332
H     -0.371357   -2.584959   -0.911238
H     -0.442114   -0.926892   -1.733259
H      1.289526   -3.192532    0.171399
H     -1.079679    0.519590    2.523229
H     -1.470035    2.062088    1.639062
H     -3.177622   -0.144096    2.030792
H     -4.986744    1.749764   -2.087087
H     -5.477216    0.445768   -0.882800
H     -4.557637    0.044617   -2.352772
H     -3.709065    3.130016   -1.231007
H     -2.454836    2.394072   -2.293152
H     -2.108415    2.816713   -0.531453
H      0.347893   -1.645017    2.005880
H     -1.365891   -1.592767    2.399708
H     -0.813647   -2.862783    1.279538
H     -3.596301   -2.584842   -1.845838
H     -5.000952   -1.903415   -0.996446
H     -4.532943   -3.735637    0.605720
