56

C     -1.065986   -0.379389   -0.001156
C     -0.151625    0.781100   -0.405705
C      1.147708    0.508850    0.249168
C      1.798409   -0.809896   -0.150398
C      2.979451   -0.700309    0.816812
C      3.941228   -1.784380    0.744228
C      4.861226   -2.119856   -0.358378
O      4.016576   -2.541241    1.733568
O      2.380415   -0.655926    2.095202
C      3.491095    0.668352    0.462372
C      2.270747    1.452235   -0.047744
C      2.303346   -0.804604   -1.538557
C      0.859370   -1.897776    0.203232
C     -0.495309   -1.690021   -0.402097
O     -0.539527   -1.954547   -1.756341
C     -0.650047    2.102204    0.100788
C     -2.134390    2.309631   -0.005033
C     -2.502150    3.403612    0.984985
C     -2.905854    1.082209    0.290490
C     -3.894951    1.101758    1.138932
C     -4.645954   -0.108176    1.422800
O     -5.615174   -0.057908    2.263186
C     -4.288344   -1.338200    0.756419
C     -3.286236   -1.328631   -0.094333
C     -2.492599   -0.141326   -0.420786
C     -2.624477    0.075203   -1.920359
F     -1.072440   -0.350825    1.402261
H      0.015069    0.790182   -1.512451
H      0.984955    0.454721    1.348327
H      5.396756   -1.221825   -0.784833
H      5.707516   -2.768791   -0.015391
H      4.327089   -2.595214   -1.192585
H      2.369337   -1.557951    2.513729
H      3.852920    1.129243    1.420311
H      4.243312    0.708553   -0.317624
H      2.192260    2.426578    0.454747
H      2.335571    1.630707   -1.131026
H      1.718133   -0.075937   -2.185435
H      3.348913   -0.481362   -1.681015
H      2.233968   -1.832160   -2.002024
H      0.718202   -1.877737    1.319876
H      1.266266   -2.888509   -0.118961
H     -1.150153   -2.480769    0.077361
H     -0.390712   -1.197827   -2.342538
H     -0.169138    2.891903   -0.545789
H     -0.286134    2.313252    1.132745
H     -2.399984    2.698112   -1.011219
H     -2.442615    3.035722    2.041002
H     -3.530028    3.787064    0.826832
H     -1.766917    4.242819    0.927104
H     -4.183264    2.046736    1.662346
H     -4.855483   -2.247412    0.972074
H     -3.048337   -2.264237   -0.577438
H     -2.762452   -0.884517   -2.461562
H     -1.834938    0.718854   -2.342712
H     -3.574618    0.677658   -2.037406
