43

C      0.329186    1.651887   -1.446774
C      0.079095    2.489653   -2.540418
C     -1.102237    2.328503   -3.231325
C     -1.998216    1.357870   -2.833543
C     -1.766305    0.522919   -1.756410
C     -0.572854    0.687388   -1.060138
C     -0.066664   -0.032335    0.095993
N     -0.786422   -0.642536    0.995733
C     -2.225776   -0.745742    1.055422
C     -3.062117   -0.652609   -0.037386
C     -4.429618   -0.776699    0.229050
C     -4.905958   -0.977603    1.492544
C     -4.057682   -1.068302    2.572167
C     -2.700295   -0.949052    2.337253
F     -4.582343   -1.267163    3.796905
C     -2.830606   -0.445836   -1.488134
N      1.340826   -0.056228    0.222931
C      2.133115   -0.749741   -0.769576
C      3.206586   -1.607502   -0.083225
N      3.952001   -0.863028    0.887439
C      4.705265    0.183103    0.266272
C      3.064101   -0.395312    1.930751
C      2.073160    0.573935    1.307238
H      1.244411    1.766712   -0.898247
H      0.803514    3.252969   -2.838754
H     -1.342159    2.955898   -4.088885
H     -2.940571    1.221189   -3.375829
H     -5.089250   -0.701700   -0.643675
H     -5.981856   -1.068779    1.654278
H     -2.022830   -1.018128    3.174577
H     -2.470101   -1.441282   -1.880369
H     -3.786358   -0.182972   -1.973521
H      1.508309   -1.486490   -1.351267
H      2.600986   -0.098546   -1.519452
H      3.883723   -1.931980   -0.905918
H      2.728621   -2.494187    0.356382
H      4.108797    0.840069   -0.399048
H      5.201723    0.835093    1.006122
H      5.479732   -0.292493   -0.371138
H      3.639568    0.155843    2.687085
H      2.589450   -1.262075    2.392581
H      2.677734    1.445438    0.982811
H      1.370316    0.939853    2.077050
