37

C     -2.219750    2.479810    0.147134
C     -3.440296    3.116496    0.155684
F     -3.456170    4.455991    0.302050
C     -4.613382    2.386647    0.016494
C     -4.489013    1.015976   -0.127833
C     -3.267552    0.371296   -0.137218
C     -2.103857    1.116046    0.003140
C     -0.726795    0.655005    0.021751
C     -0.221646   -0.564826   -0.038555
S      1.549861   -0.776999    0.009726
C      2.424650    0.778944    0.139679
C      3.899022    0.506453    0.173765
N      4.682799    1.723644    0.278900
C      6.096991    1.458345    0.311341
C     -0.995889   -1.797481   -0.144370
C     -0.173368   -2.886292   -0.123779
C     -0.719606   -4.143027   -0.213268
C     -2.084152   -4.290773   -0.322252
C     -2.948172   -3.212733   -0.346393
C     -2.379095   -1.969184   -0.255682
O     -3.363698   -1.005808   -0.293348
H     -1.324346    3.048797    0.254682
H     -5.572094    2.886977    0.023231
H     -5.398507    0.450328   -0.235726
H      0.009031    1.446392    0.098010
H      2.137983    1.447933   -0.694061
H      2.153487    1.319068    1.071717
H      4.243938   -0.017302   -0.745023
H      4.154590   -0.144507    1.023733
H      4.393653    2.465863   -0.365103
H      6.525319    1.986982    1.192529
H      6.611798    1.730080   -0.629900
H      6.251499    0.377025    0.504896
H      0.894234   -2.713329   -0.036303
H     -0.039184   -4.990876   -0.194214
H     -2.482956   -5.316917   -0.391750
H     -4.009326   -3.394044   -0.433684
