64

C      2.497164    0.092100   -0.845525
C      1.084999   -0.451869   -0.846739
C      0.292125    0.794237   -0.645261
C     -1.139225    0.490149   -0.792167
C     -1.492947   -0.299837    0.469869
C     -2.970290   -0.636244    0.475732
C     -3.728592    0.612085    0.259085
C     -4.666725    1.089574    1.034236
C     -5.020143    0.344038    2.232748
O     -6.142561    0.387611    2.749510
C     -3.932348   -0.488313    2.810114
C     -3.333894   -1.345952    1.721431
C     -3.383925    1.403132   -0.956366
C     -1.926269    1.783432   -0.803739
F     -4.138208    2.531249   -1.081097
C     -3.318458   -1.545688   -0.708043
C     -0.604900   -1.431120    0.762042
C      0.783544   -1.380470    0.284067
O     -1.236121   -2.639070    0.379877
C      0.917518    1.760081   -1.579925
C      2.382555    1.593995   -1.128418
O      2.463389    2.147378    0.127057
C      3.109974    1.257945    0.961415
O      2.948097   -0.010417    0.468459
C      4.591363    1.568663    1.088040
C      2.567663    1.279782    2.380918
C      0.837589   -1.127070   -2.160024
C      3.402152   -0.548804   -1.799659
C      4.619369   -1.246563   -1.279821
O      5.336568   -1.798643   -2.344673
O      3.178617   -0.521600   -2.996615
H      0.472065    1.151508    0.388137
H     -1.426759   -0.048343   -1.698160
H     -1.374737    0.464272    1.296691
H     -5.196719    2.031197    0.811741
H     -4.267260   -1.128294    3.623519
H     -3.112256    0.154246    3.222714
H     -2.513850   -1.919439    2.197504
H     -4.118886   -2.133205    1.507170
H     -3.508983    0.801575   -1.864314
H     -1.628218    2.341207   -1.715300
H     -1.748907    2.355491    0.111994
H     -4.123701   -1.108465   -1.343811
H     -2.478056   -1.743264   -1.369722
H     -3.774373   -2.503783   -0.325965
H     -0.542162   -1.535185    1.890516
H      1.540825   -1.175836    1.090567
H      1.067920   -2.415954   -0.074322
H     -0.683955   -3.130397   -0.275945
H      0.632278    2.810117   -1.333383
H      0.829568    1.525997   -2.642389
H      3.093358    1.950839   -1.866323
H      5.173236    0.669179    1.371907
H      4.985971    1.892011    0.090259
H      4.710501    2.349887    1.853538
H      2.388574    2.345555    2.634581
H      1.584622    0.776514    2.476667
H      3.292634    0.895548    3.106897
H     -0.183755   -1.610193   -2.076413
H      0.857146   -0.489956   -3.038599
H      1.514383   -1.986750   -2.335582
H      5.265539   -0.528155   -0.775820
H      4.367527   -2.053032   -0.577562
H      4.928347   -2.668682   -2.597317
