55

C      3.940670    1.348854   -0.808468
C      4.787015    2.417199   -1.128731
C      6.128424    2.247972   -1.004093
C      6.633442    1.056463   -0.574600
C      5.787974    0.006988   -0.260496
C      4.396956    0.133221   -0.372459
N      3.585977   -0.959425   -0.013164
C      2.328736   -1.122316    0.644339
C      2.667677   -2.275016    1.569920
N      3.504802   -3.101128    0.778818
C      3.984043   -2.343520   -0.359083
O      2.303090   -2.466306    2.754157
C      1.220089   -1.636773   -0.233601
C      0.159306   -0.584072   -0.491190
N     -0.434774   -0.086529    0.706446
C     -0.703756    1.333828    0.675557
C     -1.833377    1.638876   -0.317310
C     -3.038014    0.881462    0.180551
C     -4.174841    1.133104   -0.718530
C     -5.488691    0.545257   -0.486587
C     -6.515736    0.824445   -1.350766
C     -7.756063    0.251460   -1.101490
C     -7.951674   -0.568953   -0.024846
F     -9.164341   -1.119235    0.206414
C     -6.918088   -0.853379    0.849114
C     -5.689725   -0.296826    0.617699
O     -4.037472    1.876636   -1.727073
C      0.394566   -0.353442    1.861323
C      1.843801   -0.011149    1.498101
F      7.027927    3.247825   -1.298529
H      2.852120    1.479893   -0.922148
H      4.384227    3.354775   -1.467267
H      7.711667    0.918574   -0.475621
H      6.260923   -0.909248    0.078770
H      3.735971   -4.105314    0.998512
H      5.082065   -2.457894   -0.380832
H      3.507732   -2.656982   -1.311225
H      1.588317   -1.971372   -1.229159
H      0.711142   -2.532961    0.229637
H     -0.588652   -1.061187   -1.183304
H      0.645158    0.247584   -1.079605
H      0.172738    1.918357    0.331520
H     -1.062548    1.696665    1.661546
H     -1.549715    1.332427   -1.350109
H     -2.070286    2.716773   -0.324488
H     -3.244459    1.238077    1.213133
H     -2.806154   -0.201352    0.157006
H     -6.387232    1.463949   -2.200526
H     -8.576453    0.462123   -1.771883
H     -7.060535   -1.505056    1.708371
H     -4.835468   -0.474924    1.258466
H      0.315236   -1.420253    2.173906
H      0.047603    0.321633    2.685540
H      2.363952   -0.003684    2.503616
H      1.814705    0.983875    1.088096
