45

C     -0.485258    2.391350    1.417769
C     -0.523106    1.854866    0.175331
C      0.037505    0.451800   -0.131494
C     -1.143043   -0.283496   -0.660101
C     -0.988850   -1.711617   -1.035420
C     -0.700705   -2.596811    0.167249
C     -1.960767   -2.555262    0.977719
C     -2.228893   -1.162610    1.436071
C     -2.260224   -0.124291    0.362082
C      1.205989    0.704935   -0.995228
C      2.019040   -0.452264   -1.457709
N      2.516840   -1.162823   -0.288464
C      3.488174   -0.381790    0.443268
C      3.033961   -2.469514   -0.649980
C     -1.057601    2.533373   -0.882914
C     -1.580051    3.820981   -0.667795
C     -1.531329    4.348741    0.607093
C     -0.991049    3.660188    1.670007
H     -0.042905    1.793586    2.216245
H      0.351292    0.055264    0.865962
H     -1.467228    0.238807   -1.585717
H     -0.397813   -2.007361   -1.854055
H     -2.055673   -2.041513   -1.326616
H      0.153999   -2.275980    0.758532
H     -0.597461   -3.629508   -0.239526
H     -2.830578   -2.913875    0.392963
H     -1.852712   -3.191497    1.873832
H     -1.472012   -0.925918    2.222730
H     -3.205667   -1.175381    1.972309
H     -2.246045    0.862957    0.828921
H     -3.226781   -0.207482   -0.175011
H      1.930659    1.328350   -0.367676
H      0.985239    1.428673   -1.832488
H      2.904796    0.001988   -2.015575
H      1.590129   -1.168505   -2.131852
H      2.980036    0.006515    1.360580
H      3.888477    0.469779   -0.147803
H      4.323619   -1.028716    0.816992
H      2.385343   -2.891845   -1.451848
H      4.057169   -2.434878   -1.024026
H      2.985610   -3.108194    0.239531
H     -1.120291    2.180410   -1.897386
H     -2.006152    4.377938   -1.476951
H     -1.922390    5.339584    0.821129
H     -0.943292    4.051046    2.669320
