29

N      5.044024    1.196257   -0.344011
C      4.163862    0.154403    0.035300
N      3.954991   -0.101821    1.296691
N      3.469056   -0.656570   -0.892094
C      2.192201   -1.281319   -0.620459
C      1.180546   -0.157102   -0.525720
C     -0.221535   -0.656671   -0.247797
O     -1.051512    0.486890   -0.189764
C     -2.404249    0.434184    0.046474
C     -3.168325    1.581916    0.091771
C     -4.525319    1.457966    0.334098
C     -5.143718    0.239160    0.531691
C     -4.335385   -0.878464    0.476811
C     -2.981803   -0.798517    0.238238
H      5.350183    1.882806    0.373741
H      5.383904    1.282727   -1.314837
H      4.443608    0.470769    2.017201
H      3.895685   -0.815805   -1.826064
H      2.242522   -1.838189    0.347493
H      1.930315   -2.025463   -1.378341
H      1.148500    0.407889   -1.477978
H      1.513702    0.552630    0.252328
H     -0.241360   -1.168131    0.739284
H     -0.579749   -1.323847   -1.058178
H     -2.725707    2.575451   -0.060044
H     -5.140993    2.361082    0.370626
H     -6.223935    0.153986    0.725353
H     -4.807209   -1.840016    0.629213
H     -2.362301   -1.696201    0.198197
