36

C      0.549002   -1.670167    0.844027
C     -0.264476   -2.370421    1.708729
Cl     0.444200   -3.725374    2.548377
C     -1.578562   -2.024348    1.913547
C     -2.154750   -0.943743    1.249593
C     -1.364793   -0.240352    0.386843
C     -0.015802   -0.602959    0.195117
C      0.984960    0.097046   -0.575938
N      0.755237    0.686608   -1.734500
C     -0.510641    0.781248   -2.480269
C     -1.550760    1.375907   -1.542995
O     -1.991405    2.510479   -1.817997
N     -2.090308    0.747297   -0.346811
C     -3.364127    1.131758    0.119694
C     -4.549335    0.426749   -0.480636
F     -5.738514    0.861866    0.074265
F     -4.452700   -0.918175   -0.666670
F     -4.701916    0.892785   -1.835723
C      2.345175    0.224213   -0.136603
C      2.808448   -0.133518    1.081408
C      4.156515   -0.085818    1.445937
C      5.097007    0.346014    0.546127
C      4.640648    0.714692   -0.691327
C      3.320970    0.666545   -1.048311
H      1.566892   -1.954843    0.611164
H     -2.225167   -2.560160    2.587331
H     -3.153195   -0.629515    1.407556
H     -0.836671   -0.225019   -2.735912
H     -0.357999    1.487057   -3.289058
H     -3.458483    1.329494    1.209718
H     -3.482918    2.199558   -0.268235
H      2.167619   -0.424273    1.921339
H      4.507352   -0.380307    2.429373
H      6.126295    0.385648    0.814926
H      5.381445    1.062710   -1.418931
H      2.990755    0.961313   -2.025154
