118

C     13.081671    1.604908    1.711345
C     12.178923    0.577473    1.082805
O     10.832105    0.890957    1.166003
C     10.127283    0.294785    0.129101
C     10.431697    1.066043   -1.133690
C     11.906248    1.011611   -1.369812
O     12.099212    0.361426   -2.608953
C     12.644477    0.268002   -0.296849
O     12.654930   -1.123492   -0.555470
O      8.761585    0.311166    0.324858
C      8.194074   -0.959877    0.293164
C      7.567574   -1.218295    1.615216
O      8.146793   -0.410644    2.624708
C      6.099512   -1.106047    1.718325
C      5.384214   -0.960895    0.403279
O      6.080287   -1.739829   -0.529723
C      7.222147   -1.005868   -0.857623
C      7.891274   -1.728460   -2.006030
O      4.067775   -1.410263    0.532597
C      3.137894   -0.417202    0.231198
C      2.328620   -0.929715   -0.951554
O      2.047339   -2.289799   -0.757928
C      1.063454   -0.166954   -1.175450
C      0.307529    0.064123    0.135547
O      1.191214    0.596201    1.066043
C      2.199158   -0.296573    1.404604
C      2.921198    0.274657    2.605712
O     -0.692139    0.976302   -0.094968
C     -1.964271    0.459255    0.187449
C     -2.590368    1.295906    1.249559
C     -3.995167    0.796095    1.456537
C     -4.845586    0.888945    0.208510
C     -4.803315    2.356364   -0.223917
C     -4.197833    0.110814   -0.919678
C     -4.295976   -1.373878   -0.753781
C     -5.602011   -1.842091   -0.161463
C     -6.612001   -0.747185   -0.393105
C     -6.220725    0.410254    0.485451
C     -7.300137    1.459096    0.347468
C     -8.138224    1.255853   -0.883624
C     -8.849451   -0.035781   -0.944319
C     -8.876450   -0.421453   -2.448527
C    -10.180996   -0.167817   -0.357278
C    -10.087717   -0.977800    0.908217
C     -8.610174   -1.348358    1.034203
C     -8.023763   -1.172077   -0.310959
O     -8.157500   -2.342547   -1.069624
C    -11.017099    1.028420   -0.199889
C    -12.092474    1.289203   -0.966363
C    -12.716872    2.533905   -0.584078
O    -13.748317    3.030570   -1.132419
O    -11.977760    3.029918    0.453164
C    -10.951141    2.130656    0.790142
C     -2.735531    0.449214   -1.100720
H     13.483934    1.260098    2.687954
H     12.614532    2.615122    1.793621
H     13.965771    1.738512    1.055857
H     12.299742   -0.371221    1.685381
H     10.414398   -0.765976   -0.021820
H      9.837005    0.685173   -1.989752
H     10.161632    2.135932   -0.914381
H     12.328704    2.038843   -1.511469
H     11.312957   -0.228362   -2.786223
H     13.723357    0.565664   -0.372565
H     12.562589   -1.329507   -1.503722
H      9.019017   -1.685584    0.116084
H      7.843394   -2.267295    1.939877
H      7.676198   -0.535724    3.472011
H      5.639208   -1.929334    2.323013
H      5.827561   -0.172804    2.302288
H      5.417561    0.102085    0.093719
H      6.942979   -0.000907   -1.208213
H      8.615694   -2.481200   -1.613799
H      8.349172   -1.038643   -2.742830
H      7.120955   -2.301529   -2.568639
H      3.587358    0.536336   -0.040989
H      2.977596   -0.842005   -1.836019
H      2.935298   -2.726701   -0.652752
H      1.251670    0.819503   -1.643570
H      0.418978   -0.774559   -1.849986
H     -0.048106   -0.922166    0.503219
H      1.802349   -1.311680    1.630779
H      3.576816   -0.513100    3.031835
H      2.180321    0.557337    3.395600
H      3.511544    1.145489    2.306122
H     -1.837610   -0.581441    0.537696
H     -2.505545    2.370650    1.102626
H     -2.044932    1.067919    2.209053
H     -3.957500   -0.222341    1.867256
H     -4.483055    1.468736    2.205910
H     -5.410831    2.552864   -1.105885
H     -4.966089    3.036360    0.623583
H     -3.732959    2.535371   -0.538229
H     -4.685932    0.487917   -1.867942
H     -3.419438   -1.724006   -0.207151
H     -4.252721   -1.822899   -1.789277
H     -5.442297   -1.967521    0.945581
H     -5.968732   -2.790932   -0.574523
H     -6.449369   -0.408708   -1.459078
H     -6.280462    0.029377    1.537215
H     -7.982849    1.443467    1.221514
H     -6.899693    2.491387    0.289581
H     -8.820252    2.095466   -1.006385
H     -7.413641    1.352878   -1.757701
H     -8.957937   -1.496189   -2.592585
H     -9.744636    0.109669   -2.884307
H     -7.977200   -0.005090   -2.944285
H    -10.755476   -0.873313   -1.072946
H    -10.746425   -1.861948    0.853816
H    -10.427163   -0.408350    1.800103
H     -8.116296   -0.860533    1.865448
H     -8.606218   -2.453573    1.272903
H     -8.123965   -3.106701   -0.421413
H    -12.471900    0.673512   -1.774235
H    -11.278117    1.661595    1.760467
H     -9.997393    2.637814    0.882716
H     -2.573556    1.353250   -1.722664
H     -2.305186   -0.397240   -1.714904
