59

C     -3.444831   -1.538684   -0.660788
C     -4.256567   -2.655740   -0.458263
C     -3.949678   -3.945787   -1.151201
F     -2.594530   -4.215439   -1.137769
F     -4.428040   -3.873620   -2.453773
F     -4.618823   -4.926969   -0.477382
C     -5.339415   -2.478745    0.357415
C     -5.617462   -1.264736    0.946418
C     -4.797625   -0.205160    0.726519
C     -3.676402   -0.311281   -0.092237
N     -2.817288    0.792649   -0.363133
C     -2.942258    2.106341    0.098286
C     -3.980528    2.504393    0.939795
C     -4.149568    3.780522    1.344545
C     -3.269422    4.744495    0.926159
C     -2.213776    4.418494    0.100939
C     -2.070926    3.103616   -0.298750
S     -5.130441    1.305850    1.541662
C     -1.421682    0.419996   -0.869686
C     -0.990306   -0.399601    0.365314
C      0.371993   -0.252012    0.867414
N      1.533281   -0.762530    0.317648
C      2.026592   -0.356435   -0.927699
C      3.384988    0.316949   -0.867783
N      4.397462   -0.441652   -0.243814
C      5.678239   -0.307924   -0.880798
C      6.284438    1.078594   -0.706550
O      6.464815    1.373484    0.631298
C      4.147918   -1.809091    0.047162
C      3.371405   -1.863127    1.362083
C      2.553296   -0.601282    1.387600
H     -2.609283   -1.712215   -1.373488
H     -6.034589   -3.325710    0.546501
H     -6.492885   -1.155467    1.603026
H     -4.956300    4.085000    1.999835
H     -3.413565    5.750543    1.236423
H     -1.530743    5.168198   -0.235969
H     -1.229956    2.895972   -0.967725
H     -1.548600   -0.181401   -1.754185
H     -0.750993    1.235480   -0.903784
H     -0.947718   -1.499839   -0.080973
H     -1.731416   -0.478284    1.147753
H      0.397481   -0.305038    2.025158
H      0.541228    0.945458    0.806576
H      1.354268    0.325352   -1.469823
H      2.108070   -1.256758   -1.648839
H      3.675862    0.448093   -1.943792
H      3.207915    1.339376   -0.461899
H      5.561466   -0.443904   -1.981527
H      6.343587   -1.076592   -0.481281
H      7.220168    1.071405   -1.283864
H      5.572281    1.791181   -1.196022
H      6.011309    2.207036    0.836220
H      3.657715   -2.404722   -0.725528
H      5.153548   -2.267536    0.312228
H      2.752849   -2.757468    1.416776
H      4.079126   -1.862467    2.231577
H      1.968099   -0.561845    2.336833
H      3.136218    0.290583    1.251148
