73

C     -1.549410    0.223550   -0.585474
C     -0.112816    0.267200   -0.090462
C      0.682403    0.616907   -1.332023
C      2.050879    1.000860   -0.850331
C      2.689122   -0.282189   -0.416586
C      4.072020    0.029728    0.174781
C      4.814046    0.883770   -0.749847
C      5.967476    0.604095   -1.246316
C      6.646198   -0.639933   -0.917933
O      7.771647   -0.962845   -1.368899
C      5.971032   -1.553138   -0.012643
C      4.796329   -1.211216    0.462300
C      4.153276    2.174429   -1.233119
C      2.864955    1.676236   -1.919960
C      3.953653    0.828054    1.478245
Cl     3.091383   -1.135997   -1.963860
C      1.878893   -1.181791    0.406202
C      0.398485   -1.101312    0.279100
O      2.151478   -1.159726    1.784583
C     -0.161746    1.645387   -1.949635
C     -1.532295    0.941501   -1.906409
C     -1.545391   -0.010279   -3.082459
C      0.084528    1.176132    1.061417
C     -2.326429    1.056960    0.374540
C     -3.318094    0.602168    1.344275
O     -3.843014    1.685073    2.130439
C     -4.509384    2.763461    1.620825
C     -5.046467    3.873359    2.457346
O     -4.683160    2.829383    0.377483
O     -2.107462    2.285400    0.355814
O     -1.967480   -1.115738   -0.646733
C     -3.172668   -1.564267   -1.087413
C     -3.480180   -3.024387   -1.073728
C     -4.746181   -3.318855   -0.260742
C     -4.950298   -4.816256   -0.324189
O     -4.043296   -0.781720   -1.506547
H      0.785571   -0.243973   -2.000879
H      1.933315    1.752016   -0.043883
H      6.487238    1.312293   -1.950623
H      6.432408   -2.517488    0.271433
H      4.353984   -1.970329    1.143577
H      3.825663    2.720491   -0.329069
H      4.818101    2.703952   -1.895903
H      3.125373    1.009956   -2.766855
H      2.391712    2.566533   -2.336169
H      3.209711    1.627613    1.446919
H      3.930267    0.176036    2.372469
H      4.937907    1.382512    1.605780
H      2.150144   -2.247250    0.118443
H     -0.130595   -1.389425    1.207273
H      0.016132   -1.803382   -0.517899
H      1.578587   -1.871820    2.184822
H      0.073341    1.776202   -3.022976
H     -0.202515    2.611530   -1.407902
H     -2.330526    1.718524   -1.966071
H     -1.435619   -1.082356   -2.758913
H     -2.448343    0.115347   -3.725477
H     -0.677293    0.145801   -3.778009
H      0.972057    0.853333    1.691348
H     -0.765954    1.060558    1.760757
H      0.158603    2.256588    0.821501
H     -4.157933    0.015978    0.991239
H     -2.827826   -0.054390    2.130525
H     -4.520610    3.951146    3.429790
H     -6.130785    3.746731    2.657372
H     -4.904291    4.817990    1.912520
H     -3.735619   -3.368126   -2.114913
H     -2.619863   -3.631827   -0.746451
H     -4.619246   -2.971315    0.789683
H     -5.631829   -2.819512   -0.696136
H     -4.463203   -5.250306   -1.239583
H     -6.018536   -5.102402   -0.400415
H     -4.501559   -5.301234    0.580556
