26

C      2.648453   -1.579544   -0.313674
C      3.934664   -1.766537    0.172472
N      4.571750   -0.762994    0.798680
C      3.959822    0.426040    0.955126
C      2.671114    0.654852    0.482977
C      2.004815   -0.356159   -0.158813
C      0.664836   -0.237015   -0.696326
N     -0.171132    0.836663   -0.321253
N     -1.440355    0.909369   -0.857974
C     -2.503860    0.843190    0.108601
C     -3.817404    0.942070   -0.667789
C     -2.443815   -0.477135    0.815496
O      0.263893   -1.134700   -1.518525
H      2.184972   -2.399890   -0.802357
H      4.474115   -2.700672    0.075151
H      4.490283    1.217371    1.460802
H      2.174879    1.585691    0.597515
H      0.163914    1.546814    0.339860
H     -1.577602    0.381174   -1.717897
H     -2.401220    1.646940    0.854145
H     -4.182462    2.004839   -0.668684
H     -4.606247    0.341950   -0.172866
H     -3.695475    0.646793   -1.727592
H     -3.102213   -1.217795    0.280697
H     -2.821055   -0.416415    1.877158
H     -1.444668   -0.934901    0.868278
