50

C     -1.240026   -1.121454   -2.239607
C     -1.416689   -2.233769   -3.043338
C     -1.080408   -3.485842   -2.598056
C     -0.557521   -3.610784   -1.319945
C     -0.380054   -2.500539   -0.515200
C     -0.720317   -1.246205   -0.968881
C     -0.507712   -0.046337   -0.100611
C     -1.411617    1.067992   -0.583941
C     -2.656106    1.243671    0.011038
C     -3.510641    2.239075   -0.398643
C     -3.141234    3.096813   -1.426286
C     -1.922163    2.916282   -2.001524
C     -1.067363    1.913946   -1.585630
C      0.887483    0.447260   -0.195313
C      1.937722   -0.514904    0.218754
N      3.290382   -0.104273    0.133342
C      3.811110    0.861126    1.010315
C      4.218598   -1.231061    0.055276
C      1.018090    1.809944    0.420305
C     -0.972693   -0.422553    1.262442
C     -0.810030    0.371049    2.491780
C     -1.496246   -0.324631    3.672290
O     -1.548061   -1.491841    1.392539
H     -1.533187   -0.178937   -2.672217
H     -1.822032   -2.128085   -4.032603
H     -1.212455   -4.358594   -3.212835
H     -0.285788   -4.606490   -0.956603
H      0.046164   -2.720011    0.465324
H     -2.955004    0.593972    0.801327
H     -4.490444    2.419992    0.032439
H     -3.817932    3.881209   -1.747559
H     -1.643215    3.601895   -2.812476
H     -0.137353    1.857242   -2.105796
H      1.076696    0.603976   -1.312453
H      1.875307   -1.487693   -0.331338
H      1.740780   -0.747041    1.311474
H      4.944331    0.709446    1.129005
H      3.701829    1.918620    0.732342
H      3.415047    0.719005    2.059315
H      3.592622   -2.139854   -0.082586
H      4.713981   -1.301079    1.059956
H      4.926867   -1.062601   -0.766085
H      1.475733    1.822660    1.422584
H      0.008566    2.297797    0.537777
H      1.610026    2.507203   -0.218415
H     -1.166843    1.405015    2.427085
H      0.272073    0.383597    2.815798
H     -0.863967   -0.392024    4.556865
H     -1.708193   -1.365155    3.338117
H     -2.488117    0.132973    3.870452
