46

C      1.488148    0.027227    2.518621
C      2.128064   -0.375214    3.668841
C      3.446505   -0.768450    3.614338
C      4.099600   -0.750716    2.405474
C      3.407733   -0.338135    1.286053
C      2.100097    0.063011    1.277213
N      1.382442    0.501105    0.112028
C      1.964903    0.562834   -1.164900
C      3.275649    0.224166   -1.482176
C      3.776697    0.294522   -2.738469
C      3.004745    0.712614   -3.797789
C      1.681583    1.059865   -3.514688
C      1.191310    0.981130   -2.227993
S      4.367389   -0.344446   -0.215720
C     -0.012488    0.875822    0.262258
C     -0.992325   -0.248542    0.122294
N     -2.308040    0.227846    0.318722
C     -2.743917    1.168844   -0.639039
C     -4.201138    1.572613   -0.361217
C     -3.295272   -0.765595    0.625204
C     -3.617609   -1.705618   -0.481703
C     -0.642685   -1.524971    0.806580
H      0.456122    0.320871    2.657506
H      1.591637   -0.385387    4.629657
H      3.938962   -1.083382    4.524214
H      5.133698   -1.063004    2.384158
H      4.798019    0.021512   -2.934729
H      3.393222    0.771238   -4.805808
H      1.064205    1.389356   -4.331725
H      0.136699    1.269720   -2.153304
H     -0.292865    1.699644   -0.424458
H     -0.208457    1.396483    1.256316
H     -1.014799   -0.587212   -0.988959
H     -2.632346    0.868526   -1.689060
H     -2.164779    2.129139   -0.532145
H     -4.850868    0.764921   -0.728853
H     -4.357638    1.768320    0.711007
H     -4.449597    2.493707   -0.965376
H     -4.223580   -0.233356    0.911718
H     -3.008449   -1.319194    1.549752
H     -4.672418   -1.616722   -0.805594
H     -3.541703   -2.757942   -0.081149
H     -2.986994   -1.575342   -1.384308
H     -0.795472   -1.578717    1.873899
H     -1.225714   -2.369796    0.365458
H      0.411727   -1.773294    0.567850
