44

C      0.535625    2.262662   -0.211737
C      0.915311    3.608295   -0.150600
C      2.242732    3.898276   -0.025837
C      3.192131    2.914459    0.038573
C      2.802817    1.597219   -0.023451
C      1.448089    1.245350   -0.150718
N      0.843702   -0.029721   -0.233197
C      1.553450   -1.245059    0.135794
C      2.850836   -1.510610    0.446853
C      4.043771   -0.653085    0.526408
C      3.900257    0.687197    0.036931
O      4.977450    1.191746   -0.456382
C      3.251125   -2.825611    0.780182
C      2.360831   -3.855366    0.800257
C      1.053687   -3.575259    0.484135
C      0.668560   -2.265674    0.154998
C     -0.483455   -0.121834   -0.658710
C     -1.641663   -0.035711    0.233320
C     -2.946905   -0.221402   -0.590030
N     -4.097693   -0.150915    0.216095
C     -4.366623    1.154763    0.726914
C     -5.218596   -0.818184   -0.380991
H     -0.486705    2.025660   -0.322931
H      0.115605    4.332098   -0.206522
H      2.560704    4.919841    0.025243
H      4.266263    3.161203    0.138870
H      4.827262   -1.158445   -0.135794
H      4.512758   -0.726022    1.541684
H      4.287015   -3.015879    1.025435
H      2.642988   -4.865210    1.055743
H      0.333825   -4.382007    0.496387
H     -0.336784   -2.166971   -0.062321
H     -0.733770    0.634063   -1.507626
H     -0.547203   -0.986222   -1.414513
H     -1.670225   -0.787315    1.089473
H     -1.888532    0.892243    0.765137
H     -2.919297   -1.238169   -1.072683
H     -2.897774    0.549312   -1.378297
H     -3.603113    1.911859    0.479103
H     -4.432869    1.152821    1.848491
H     -5.330242    1.507924    0.262532
H     -5.854715   -1.346277    0.391538
H     -4.879358   -1.568147   -1.151482
H     -5.851272   -0.097893   -0.929284
