25

C     -1.898037    0.338094    0.899554
C     -1.012204   -0.873636    0.745605
C      0.264590   -0.606947    0.098975
C      1.354894   -0.255033    0.863177
C      2.595868    0.010021    0.300266
C      2.755475   -0.078245   -1.065929
C      1.687479   -0.425120   -1.837251
C      0.454662   -0.687233   -1.265342
O      4.015051    0.192917   -1.614773
O      3.676861    0.359848    1.067636
C     -2.258168    0.975393   -0.365636
O     -3.572304    1.076068   -0.791479
O     -1.366244    1.455738   -1.110142
N     -3.122350   -0.113363    1.538345
H     -1.434967    1.065289    1.611142
H     -0.820234   -1.259693    1.769702
H     -1.616559   -1.652253    0.235172
H      1.295451   -0.168359    1.941059
H      1.836078   -0.488252   -2.907877
H     -0.348646   -0.957695   -1.943322
H      4.783468    0.444267   -1.041237
H      3.669446    0.452604    2.068253
H     -3.758240    1.122489   -1.782796
H     -3.204877   -1.157523    1.549987
H     -3.976494    0.231566    1.036911
