47

C     -0.892005    0.879705    0.426957
C     -0.569443   -0.110632   -0.651511
N      0.397169   -1.061244   -0.113999
C      1.724233   -0.570461    0.052645
C      2.768101   -1.276714    0.585187
S      2.468040   -2.945590    1.147717
C      0.789337   -3.318172    0.808966
C     -0.035400   -2.362674    0.246390
C     -1.372991   -2.693287    0.003221
C     -1.845144   -3.973395    0.329237
C     -0.987952   -4.883338    0.883589
C      0.322912   -4.537900    1.115576
C      4.054166   -0.777134    0.710486
C      4.312054    0.496475    0.280693
C      3.305220    1.267492   -0.268135
C      2.025904    0.727288   -0.376299
O      3.575065    2.561273   -0.703285
C      4.862308    3.133361   -0.604673
C     -1.839093    1.946901    0.020250
N     -3.151768    1.563583   -0.415070
C     -3.984809    2.807303   -0.479893
C     -3.206763    1.081176   -1.796158
C     -1.664647    0.097097    1.546901
H     -0.022004    1.258326    1.003245
H     -1.494557   -0.491989   -1.011059
H     -0.153940    0.447617   -1.541896
H     -2.050497   -1.992745   -0.423795
H     -2.876895   -4.162408    0.116049
H     -1.346165   -5.874555    1.137625
H      0.978956   -5.278897    1.554308
H      4.825967   -1.413117    1.148577
H      5.337251    0.878062    0.385445
H      1.267887    1.344737   -0.819037
H      5.321597    2.904896    0.382601
H      5.568660    2.753576   -1.382018
H      4.786683    4.243807   -0.636047
H     -1.976625    2.674385    0.878861
H     -1.399638    2.539816   -0.827361
H     -5.039772    2.495558   -0.490084
H     -3.750147    3.268810   -1.450261
H     -3.745272    3.447461    0.390560
H     -3.976381    1.663293   -2.400770
H     -2.256148    1.249999   -2.327729
H     -3.559701    0.037299   -1.872621
H     -1.879337    0.889956    2.294927
H     -1.004836   -0.650129    2.006027
H     -2.609580   -0.284867    1.135659
