57

C      3.720761    0.902875   -0.216664
C      2.917405    0.628894    1.034538
N      1.549737    0.446983    0.617116
C      0.475949   -0.037068    1.385959
C     -0.845808   -0.144953    0.814707
C     -1.404156   -1.198920    0.175479
C     -0.641465   -2.452503   -0.014092
C      0.635111   -2.583880    0.444494
C      1.322394   -3.776479    0.248751
C      0.706229   -4.806894   -0.404167
C     -0.573515   -4.685412   -0.867925
C     -1.269238   -3.491289   -0.674954
C     -2.643969   -3.457087   -1.211055
C     -3.351819   -2.201086   -0.998991
N     -2.683410   -1.147705   -0.315899
C     -3.383641   -0.007968   -0.146141
O     -4.548920    0.060859   -0.585057
C     -2.880314    1.089951    0.488447
C     -1.631413    1.049503    0.971923
C     -3.656558    2.311770    0.660772
C     -4.974664    2.154702    1.088241
C     -5.785315    3.252205    1.278638
C     -5.246646    4.499308    1.032138
C     -3.945410    4.653619    0.610199
C     -3.132540    3.563492    0.418643
Cl     2.984131   -3.985767    0.830626
O      0.726186   -0.351141    2.578432
C      1.455799    0.855184   -0.764745
C      2.791155    0.356920   -1.304578
O      4.949993    0.293805   -0.225644
C      5.928458    1.270470   -0.499630
C      7.290795    0.612920   -0.512729
H      3.803992    1.995953   -0.424373
H      3.349289   -0.282946    1.494917
H      3.017598    1.525535    1.689085
H      1.173734   -1.870601    0.941249
H      1.273265   -5.722692   -0.538769
H     -1.042282   -5.517936   -1.383839
H     -3.196480   -4.262518   -0.633673
H     -2.691662   -3.827334   -2.262800
H     -4.360823   -2.316610   -0.509178
H     -3.609693   -1.779308   -2.025692
H     -1.122300    1.845671    1.489720
H     -5.402856    1.170487    1.284059
H     -6.815959    3.175119    1.610089
H     -5.890708    5.356433    1.184305
H     -3.565499    5.631567    0.430380
H     -2.111158    3.610573    0.091953
H      1.437058    1.959994   -0.857833
H      0.639346    0.351856   -1.312193
H      3.029347    0.774188   -2.291142
H      2.783885   -0.737549   -1.252264
H      5.850947    2.005097    0.330616
H      5.711998    1.799556   -1.443495
H      7.261658   -0.385493   -0.992780
H      7.968150    1.313256   -1.075855
H      7.653851    0.512389    0.520685
