37

C      1.566016    0.233934    1.082803
C      0.706651    1.204993    0.639014
C     -0.494271    1.630337    1.413045
O     -1.611900    1.135146    0.752968
C     -1.635846   -0.248529    0.642625
C     -2.868961   -0.720160    1.392659
C     -4.039363    0.062371    0.861844
N     -4.061224    0.138870   -0.565046
C     -3.211904   -0.852396   -1.204986
C     -1.761674   -0.625791   -0.817128
C      0.959974    1.808106   -0.570229
C      2.052470    1.443870   -1.317694
C      2.951983    0.457399   -0.898693
C      2.660977   -0.121363    0.318785
C      3.542559   -1.110089    0.762613
C      4.629907   -1.464027    0.005610
C      4.889689   -0.860385   -1.212341
C      4.038144    0.116478   -1.673895
H      1.416230   -0.263890    2.018598
H     -0.589813    2.710586    1.504425
H     -0.415655    1.173771    2.432428
H     -0.739998   -0.692318    1.114138
H     -2.996148   -1.801392    1.346896
H     -2.757748   -0.446145    2.469792
H     -4.968718   -0.423794    1.217767
H     -4.013883    1.063652    1.335318
H     -5.007658    0.170216   -0.955703
H     -3.547291   -1.878706   -1.062012
H     -3.278304   -0.634505   -2.307281
H     -1.204360   -1.524580   -1.080898
H     -1.381932    0.226724   -1.415858
H      0.279678    2.588479   -0.938698
H      2.283647    1.901129   -2.280874
H      3.321954   -1.568256    1.714925
H      5.297377   -2.241414    0.385026
H      5.768947   -1.187994   -1.762045
H      4.220447    0.599673   -2.618379
