52

C     -5.129333    0.938522   -1.015233
C     -3.905600    1.066711   -0.413004
C     -2.676950    1.031508   -1.218758
C     -1.415163    0.777837   -0.466813
C     -1.284704   -0.523806    0.245695
N     -0.010460   -0.581603    0.961010
C      1.119893   -0.614231    0.075020
C      2.347325   -0.930974    0.941597
C      3.562556   -0.976636    0.100631
C      4.533850    0.097781    0.101425
C      5.669526    0.056060   -0.679069
C      6.595932    1.067098   -0.683899
C      6.399463    2.160357    0.107963
C      5.290536    2.244449    0.896041
C      4.355533    1.204188    0.888895
O      3.804819   -1.970347   -0.662803
C      1.038358   -1.673367   -0.970795
C     -0.282989   -1.777409   -1.674343
C     -1.374514   -1.741832   -0.661411
C     -0.024125   -1.638021    1.922365
O     -2.854791    0.117740   -2.257874
C     -3.886790    1.252261    0.945455
C     -5.065437    1.307371    1.698055
C     -6.281630    1.176071    1.079086
C     -6.318118    0.992005   -0.274975
H     -5.289870    0.803742   -2.072532
H     -2.538573    2.028137   -1.734049
H     -1.302705    1.591288    0.309962
H     -0.509424    0.930302   -1.114654
H     -2.069692   -0.633650    0.989856
H      1.319098    0.356840   -0.418184
H      2.207355   -2.003516    1.288226
H      2.415264   -0.309542    1.833291
H      5.850185   -0.805968   -1.322522
H      7.487220    1.011208   -1.310928
H      7.126711    2.987916    0.124168
H      5.115760    3.093931    1.525718
H      3.497657    1.343981    1.541299
H      1.358800   -2.657282   -0.573784
H      1.799989   -1.412046   -1.761802
H     -0.308010   -2.814708   -2.125608
H     -0.381885   -1.022780   -2.480205
H     -2.339856   -1.842347   -1.114066
H     -1.202842   -2.624199    0.018739
H     -1.095211   -1.761129    2.262856
H      0.263832   -2.577862    1.430065
H      0.608731   -1.377934    2.784578
H     -3.722736   -0.306740   -2.169837
H     -2.955939    1.384563    1.463292
H     -5.040216    1.452061    2.762689
H     -7.224028    1.213705    1.633473
H     -7.276802    0.890294   -0.754301
