40

C     -1.151659    2.553611   -0.125047
C     -2.288639    3.357138   -0.099429
C     -3.492698    2.801389    0.316521
C     -3.593621    1.458273    0.708646
C     -2.483562    0.689752    0.678725
C     -1.297516    1.243380    0.270154
C     -0.005098    0.575819    0.215251
C      0.241523   -0.748741    0.034848
C     -0.776202   -1.790533   -0.138499
C     -2.058866   -1.747559    0.357777
C     -2.887169   -2.818267    0.160286
C     -2.386081   -3.920201   -0.547322
C     -1.098327   -3.942435   -1.038256
C     -0.251273   -2.840194   -0.832474
O     -2.667586   -0.672526    1.084877
C      1.525858   -1.415190   -0.023789
C      2.690888   -0.560542    0.385527
N      2.989406    0.570683   -0.398535
C      2.032030    1.614710   -0.537604
C      0.959894    1.649077    0.460409
C      4.259696    1.134425    0.004070
H     -0.180306    2.891389   -0.455744
H     -2.206513    4.392046   -0.403388
H     -4.366998    3.431103    0.333839
H     -4.526535    1.028132    1.030324
H     -3.898157   -2.810412    0.540705
H     -3.026621   -4.779471   -0.714349
H     -0.693455   -4.779486   -1.585543
H      0.744458   -2.833923   -1.223168
H      1.759413   -1.452120   -1.110209
H      1.610247   -2.465283    0.205294
H      2.720611   -0.336976    1.454992
H      3.591870   -1.261193    0.248025
H      2.570046    2.584572   -0.522246
H      1.655578    1.545513   -1.605171
H      0.706073    2.508549    1.062656
H      1.524643    1.172118    1.363377
H      5.094564    0.862675   -0.651967
H      4.439597    0.849511    1.077024
H      4.220488    2.261186    0.019415
