38

C     -1.570179    2.318559    2.594987
C     -1.165023    1.746461    1.408186
O     -0.893603    0.408853    1.419886
C     -0.471231   -0.383795    0.330763
O      0.816539   -0.847865    0.661235
C      1.976673   -0.647154   -0.018023
C      2.125787    0.061773   -1.188814
C      3.367669    0.209263   -1.808171
C      4.476508   -0.350595   -1.263887
C      4.372020   -1.065498   -0.097516
C      3.141793   -1.201121    0.499278
C     -1.402956   -1.570357    0.274254
N     -1.128672   -2.488532   -0.772724
C     -1.369832   -2.015470   -2.093490
C     -1.899982   -3.698018   -0.559799
C     -1.069183    2.575689    0.314374
C     -1.374481    3.910618    0.446726
C     -1.780047    4.493459    1.625406
C     -1.873928    3.656158    2.717774
H     -1.664077    1.714223    3.489625
H     -0.411546    0.172146   -0.596020
H      1.266438    0.511675   -1.636144
H      3.426709    0.786682   -2.741416
H      5.453979   -0.253281   -1.720400
H      5.258213   -1.519166    0.347007
H      3.064674   -1.770214    1.425107
H     -1.317031   -2.099408    1.245134
H     -2.449377   -1.241983    0.189537
H     -0.435662   -1.621352   -2.590699
H     -1.695333   -2.870598   -2.720335
H     -2.195830   -1.262534   -2.165084
H     -1.645428   -4.062230    0.474805
H     -3.001263   -3.492494   -0.510232
H     -1.666916   -4.474142   -1.317714
H     -0.754094    2.163050   -0.634368
H     -1.298185    4.573576   -0.422561
H     -2.018424    5.530513    1.733527
H     -2.194720    4.103113    3.659785
