50

C      4.610702   -0.066489    1.884212
C      3.233083    0.107607    1.827729
C      2.613259    0.568038    0.689831
C      3.420698    0.852414   -0.402037
C      4.768282    0.698619   -0.394545
C      5.364114    0.227511    0.781931
O      6.740578    0.059190    0.822438
C      7.451210   -0.402451    1.930931
O      5.612073    0.959901   -1.430640
C      5.188732    1.431203   -2.668688
C      1.171984    0.736542    0.671300
C      0.408859   -0.481247    0.224898
N     -1.021786   -0.275941    0.229266
C     -1.388628    0.641810   -0.776687
C     -2.872675    0.763388   -1.018606
N     -3.575329   -0.463803   -0.683360
C     -2.783317   -1.664985   -0.775626
C     -1.669562   -1.545229    0.227099
C     -4.940148   -0.410376   -0.311524
C     -5.692035    0.723048   -0.528848
C     -7.040943    0.811597   -0.160546
C     -7.667542   -0.256835    0.442617
C     -6.922146   -1.389109    0.660977
C     -5.574596   -1.474713    0.292629
Cl    -7.964546    2.267014   -0.451569
H      5.051783   -0.427391    2.791226
H      2.677697   -0.137997    2.727056
H      2.920925    1.206215   -1.267437
H      8.524627   -0.115978    1.890861
H      7.370715   -1.513963    1.999161
H      7.029911    0.034371    2.849072
H      5.643937    2.424785   -2.929215
H      5.449938    0.684881   -3.463292
H      4.103136    1.589531   -2.781187
H      0.819292    0.977934    1.705080
H      0.919350    1.609508    0.052120
H      0.711323   -0.666612   -0.844897
H      0.666980   -1.387582    0.766933
H     -1.038563    1.653726   -0.478046
H     -0.856752    0.417431   -1.733872
H     -3.307912    1.628480   -0.483848
H     -3.023994    0.933146   -2.100218
H     -2.381406   -1.796914   -1.804752
H     -3.363632   -2.569810   -0.540780
H     -0.937844   -2.368026   -0.012820
H     -2.071156   -1.757299    1.234974
H     -5.229250    1.584320   -1.008717
H     -8.709509   -0.178434    0.722940
H     -7.395232   -2.237531    1.132652
H     -5.044683   -2.388459    0.493821
