30

C     -1.697685    0.235918   -1.140793
C     -0.824637    0.106207   -0.058611
C      0.389725   -0.773899   -0.140809
C      1.588165   -0.159297    0.420733
N      2.243439    0.513468   -0.652277
C      3.314981    1.491337   -0.534983
C      1.645065    0.042840   -1.872819
N      0.644936   -0.896029   -1.583357
O      1.996654    0.439462   -2.993016
O      1.984419   -0.198856    1.601871
C      0.093489   -2.101834    0.464585
C     -0.319239   -2.071232    1.909572
C     -1.115171    0.818615    1.086837
C     -2.224259    1.635821    1.180365
C     -3.068247    1.731558    0.067648
C     -2.806522    1.037243   -1.082799
H     -1.450253   -0.332070   -2.029526
H      4.141657    1.122079    0.105503
H      2.908282    2.466734   -0.209093
H      3.734557    1.671407   -1.560307
H      0.164593   -1.556194   -2.233718
H     -0.736667   -2.567596   -0.102710
H      0.999610   -2.741654    0.400168
H      0.475515   -1.661041    2.537503
H     -1.285234   -1.502649    2.019849
H     -0.521022   -3.151373    2.177812
H     -0.427339    0.721850    1.942896
H     -2.456219    2.198762    2.082077
H     -3.928880    2.354921    0.115944
H     -3.463714    1.125502   -1.918542
