48

C      5.204450   -2.544475    0.390455
C      4.969697   -1.506893   -0.683667
C      3.546599   -1.269002   -0.939641
O      2.947262   -2.060653   -1.733284
C      2.789900   -0.178858   -0.334377
C      3.415553    0.689382    0.534527
C      2.690600    1.707076    1.095910
C      1.357315    1.859206    0.794886
S      0.469235    3.206920    1.580101
C     -1.183767    3.138218    0.967434
C     -2.034789    4.095478    1.406760
C     -3.334509    4.132893    0.986875
C     -3.766774    3.186131    0.112322
C     -2.916878    2.205225   -0.345690
C     -1.584996    2.174319    0.091416
N     -0.706089    1.150516   -0.414394
C     -1.295876    0.198082   -1.313172
C     -2.157872   -0.870070   -0.747013
C     -2.632410   -1.689062   -1.982752
N     -1.512247   -1.828922    0.118185
C     -1.019300   -1.286173    1.347874
C     -2.479074   -2.860523    0.438414
C      0.673819    1.033468   -0.060459
C      1.452968    0.005471   -0.611200
H      4.379693   -3.301790    0.355451
H      6.184688   -3.022270    0.202768
H      5.276052   -2.092523    1.403658
H      5.549141   -0.584925   -0.468221
H      5.421597   -1.945448   -1.623070
H      4.469107    0.590121    0.789080
H      3.158108    2.417663    1.794305
H     -1.734549    4.880735    2.110760
H     -4.026451    4.886228    1.326842
H     -4.802494    3.200034   -0.235537
H     -3.286607    1.480633   -1.047144
H     -1.891502    0.809648   -2.070338
H     -0.492958   -0.319885   -1.886558
H     -3.055737   -0.545813   -0.186283
H     -2.751557   -0.991944   -2.834605
H     -1.831030   -2.393579   -2.228711
H     -3.604464   -2.146628   -1.777860
H     -1.343444   -0.246055    1.534321
H     -1.432376   -1.861323    2.238864
H      0.082828   -1.344541    1.474003
H     -3.505244   -2.433914    0.599965
H     -2.210294   -3.327592    1.416865
H     -2.487055   -3.678632   -0.309113
H      1.041733   -0.715955   -1.278954
