28

C      3.401394    0.222637   -1.667314
C      4.006302   -0.695999   -0.837656
C      3.219765   -1.302934    0.119258
C      1.872874   -0.986753    0.225600
C      1.255719   -0.071107   -0.596577
C      2.062347    0.531524   -1.555180
C     -0.157220    0.255996   -0.475156
O     -0.636945    1.102660   -1.286905
C     -1.053784   -0.328599    0.519658
C     -0.649971   -0.076584    1.950316
N     -2.395058    0.099432    0.354727
C     -3.030046   -0.268056   -0.858494
C     -2.730180    1.362116    0.897276
H      4.027814    0.691666   -2.412803
H      5.065820   -0.945719   -0.920806
H      3.698084   -2.021010    0.766174
H      1.281557   -1.478308    0.981445
H      1.589117    1.254291   -2.208757
H     -1.022884   -1.439333    0.386405
H     -0.464474   -1.007263    2.526958
H      0.201285    0.634166    2.016705
H     -1.496871    0.418482    2.463202
H     -3.624577    0.575971   -1.232299
H     -3.687939   -1.154252   -0.649330
H     -2.249796   -0.545595   -1.597422
H     -1.817571    1.934496    1.148132
H     -3.296248    1.968115    0.161982
H     -3.368515    1.269959    1.780860
