31

C     -1.261889   -1.075964    0.135031
C     -2.614078   -0.882385   -0.099615
C     -3.068185    0.392544   -0.355137
C     -2.202270    1.453782   -0.377979
C     -0.855338    1.242742   -0.141583
C     -0.353489   -0.015877    0.118841
O      0.982349   -0.177314    0.346293
C      1.621835   -1.393702    0.621565
C      3.117731   -1.179997    0.818590
C      3.747200   -0.468977   -0.340611
N      3.831129    0.908874    0.076214
C      3.510728    0.988164    1.458627
O      3.250563   -0.285274    1.918017
O      3.456286    2.012567    2.194615
C     -2.710765    2.841393   -0.658249
C     -3.582406   -1.994383   -0.084982
H     -0.874457   -2.048862    0.336261
H     -4.122448    0.541096   -0.537743
H     -0.148097    2.086887   -0.156943
H      1.420279   -2.148467   -0.143899
H      1.233829   -1.751525    1.612510
H      3.620463   -2.120221    1.085734
H      3.159939   -0.547696   -1.273231
H      4.788935   -0.837483   -0.529808
H      4.078118    1.758733   -0.482100
H     -3.512560    2.814284   -1.410404
H     -1.877092    3.442426   -1.057314
H     -3.077329    3.294177    0.293835
H     -3.661144   -2.409884   -1.104154
H     -4.600836   -1.661768    0.207216
H     -3.297003   -2.777892    0.665348
