30

C      1.673484    0.078924    1.276507
C      3.034951    0.229546    1.224729
C      3.660681    0.222096   -0.006229
C      2.917998    0.066823   -1.132737
C      1.547542   -0.083738   -1.063425
C      0.874542   -0.084998    0.126347
C     -0.544494   -0.232526    0.316283
N     -1.370547   -0.815706   -0.673696
C     -2.611421   -1.058431    0.075733
O     -3.775230   -1.043792   -0.399033
N     -2.240059   -1.312839    1.438390
C     -0.809282   -1.214208    1.449122
O      0.003042   -1.792107    2.200540
C     -1.272395   -1.169696   -2.058256
C     -1.212934    1.051638    0.817865
C     -1.016100    2.184341   -0.161789
H      1.244496    0.105521    2.276969
H      3.646862    0.354708    2.106010
H      4.723727    0.336073   -0.100737
H      3.375402    0.056787   -2.108513
H      0.995901   -0.195438   -2.011135
H     -2.840418   -1.525144    2.257478
H     -2.240716   -1.642156   -2.441373
H     -0.518599   -1.916051   -2.315380
H     -1.224443   -0.220467   -2.656005
H     -0.772800    1.309489    1.780631
H     -2.299357    0.831739    0.859769
H      0.002308    2.581105    0.007191
H     -1.218904    1.910382   -1.200690
H     -1.733239    2.988124    0.115432
