31

C      3.117957   -0.980343   -0.145807
C      4.498828   -1.159522   -0.003714
C      5.291716   -0.122679    0.409421
C      4.704846    1.089578    0.679526
C      3.346374    1.275625    0.542581
C      2.528402    0.220382    0.120564
C      1.100251    0.396247   -0.029168
C      0.302582   -0.552868   -0.417484
C     -1.170135   -0.379183   -0.574173
C     -1.532815    1.069052   -0.742321
N     -2.678411    1.238941    0.098591
C     -3.097152   -0.132458    0.396866
O     -1.866704   -0.756060    0.546424
C     -3.875923   -0.682295   -0.757677
C     -3.937919   -0.182195    1.649497
O     -0.949488    1.906809   -1.458474
H      2.597467   -1.864526   -0.476223
H      4.954678   -2.093742   -0.211363
H      6.374161   -0.278803    0.516240
H      5.356431    1.913072    1.010719
H      2.870194    2.219148    0.750083
H      0.617906    1.358076    0.183132
H      0.679227   -1.530137   -0.648074
H     -1.507644   -0.977193   -1.429163
H     -3.071628    2.139423    0.392506
H     -3.696583   -0.137177   -1.713850
H     -3.581325   -1.765860   -0.858396
H     -4.961434   -0.607552   -0.518929
H     -4.946284    0.172467    1.379504
H     -3.997450   -1.214948    1.986865
H     -3.470127    0.418720    2.457240
