28

C     -1.759334    0.590431    1.114096
C     -1.108348   -0.051866    0.093513
C      0.309221   -0.414852    0.161035
C      1.213982    0.620448    0.654775
N      2.456933    0.521455   -0.027908
C      3.666358    1.286140    0.228110
C      2.296510   -0.494428   -1.039235
C      0.818554   -0.648991   -1.248499
O      3.245470   -1.090488   -1.592861
O      0.949633    1.467088    1.538576
C      0.409973   -1.703487    0.958935
C     -1.836857   -0.355735   -1.030159
C     -3.177200   -0.035561   -1.149832
C     -3.825175    0.608621   -0.123524
C     -3.115092    0.921866    1.009712
H     -1.230714    0.842072    2.004736
H      4.498117    0.823712   -0.336949
H      3.962569    1.195749    1.311727
H      3.530350    2.350332   -0.041398
H      0.434869    0.163965   -1.885469
H      0.611256   -1.646700   -1.632384
H     -0.224614   -2.446798    0.426187
H      1.450034   -2.074582    1.013517
H     -0.046914   -1.526915    1.950602
H     -1.321158   -0.868541   -1.846308
H     -3.701078   -0.309941   -2.081703
H     -4.881275    0.851047   -0.239736
H     -3.626070    1.425959    1.810444
