48

C      1.265662   -1.581264   -0.041311
C      2.425258   -2.340379   -0.086349
S      2.383139   -4.071684   -0.531194
C      4.055642   -4.753023   -0.482111
C      3.649954   -1.780945    0.209913
C      3.739513   -0.451815    0.557628
C      2.572712    0.275857    0.593948
C      1.340606   -0.253095    0.303440
C      0.025806    0.437329    0.313423
N     -1.109168   -0.404013    0.183044
C     -2.302501    0.176526    0.796312
C     -3.554046   -0.525785    0.344598
N     -3.263519   -1.880491   -0.105372
C     -4.520239   -2.504760   -0.438613
C     -2.367201   -1.839407   -1.248624
C     -1.498217   -0.602541   -1.216365
C     -0.064319    1.674836   -0.483750
C      0.489674    2.875973    0.112208
C      1.684740    3.114889    0.777542
C      2.010091    4.352512    1.270724
C      1.117994    5.419025    1.105020
C     -0.069674    5.197617    0.447365
C     -0.373032    3.941745   -0.038853
S      2.944743    1.933706    1.091109
H      0.334852   -2.042196   -0.263947
H      4.344504   -4.843002    0.589441
H      4.136713   -5.709207   -1.032865
H      4.812773   -4.062076   -0.930660
H      4.570831   -2.362162    0.180287
H      4.682773    0.027836    0.797328
H     -0.037924    0.818653    1.407136
H     -2.350533    1.232760    0.532499
H     -2.189312    0.120564    1.917688
H     -4.129271    0.052976   -0.402039
H     -4.213133   -0.645425    1.249899
H     -4.759118   -2.465848   -1.503440
H     -5.378428   -2.065689    0.134320
H     -4.472071   -3.577160   -0.120493
H     -1.752886   -2.767493   -1.209350
H     -2.982131   -1.819978   -2.152502
H     -0.674113   -0.746044   -1.907838
H     -2.177487    0.240017   -1.516105
H     -1.106285    1.850062   -0.787904
H      0.476105    1.571297   -1.491804
H      2.939918    4.539661    1.788461
H      1.433213    6.364592    1.514741
H     -0.757087    6.031848    0.322515
H     -1.335522    3.845200   -0.549101
