31

C     -0.706911   -2.987036    0.744609
N     -1.840543   -2.985195    1.452915
C     -2.361246   -1.759230    1.403943
C     -1.499154   -0.978721    0.626361
N     -0.471495   -1.738356    0.215937
C      0.663918   -1.421780   -0.591178
C      1.448557   -0.243570   -0.161432
C      1.997914    0.611160   -1.093549
C      2.727706    1.702497   -0.671069
C      2.920151    1.957595    0.669912
C      2.376720    1.111483    1.614258
C      1.642839    0.014387    1.176280
C      0.327140   -1.314791   -2.081859
C     -1.748521    0.419501    0.353964
O     -0.997946    1.130618   -0.334465
O     -2.876733    1.031159    0.873520
C     -3.150502    2.412675    0.621529
H     -0.100384   -3.873591    0.635938
H     -3.284615   -1.396717    1.870599
H      1.338420   -2.348511   -0.562824
H      1.867169    0.442056   -2.174486
H      3.169617    2.389461   -1.397670
H      3.503376    2.829758    1.007242
H      2.551077    1.347276    2.653265
H      1.224255   -0.637989    1.928247
H     -0.012935   -0.318157   -2.381892
H      1.279950   -1.585089   -2.626895
H     -0.393335   -2.109172   -2.356113
H     -2.479112    2.734443   -0.201318
H     -4.222951    2.558628    0.374484
H     -2.892425    3.005210    1.546689
