42

C      0.846306   -0.276108   -0.071415
C      1.661498   -1.517298   -0.178525
C      0.842236   -1.120346   -1.387403
C      1.289236   -2.820199    0.417340
N      2.286236   -3.851896    0.133733
C     -0.446213   -0.260620    0.615701
O     -0.463361   -1.181549    1.577113
N     -1.639800    0.420922    0.554548
C     -2.546884    0.350853    1.718221
C     -3.513688   -0.763340    1.730574
C     -2.215867    1.094869   -0.619511
C     -3.183075    0.100833   -1.309533
C      1.583537    0.985621   -0.348867
C      1.248045    1.953174   -1.191315
C      1.987728    3.154004   -1.322039
C      3.096869    3.360519   -0.572061
C      3.481437    2.374914    0.317628
C      2.753841    1.216625    0.436806
H      0.000000    0.000000    0.000000
Cl     0.000000    0.000000    0.000000
H      2.778378   -1.378682   -0.267203
H      1.399253   -0.753597   -2.245363
H     -0.122574   -1.630781   -1.590918
H      0.338408   -3.203640   -0.026959
H      1.141714   -2.832228    1.518114
H      3.233207   -3.465459    0.292844
H      2.081541   -4.752677    0.597904
H     -3.119558    1.329260    1.726329
H     -1.967805    0.341463    2.658804
H     -4.208845   -0.532521    2.632445
H     -3.095098   -1.757079    2.031897
H     -4.223034   -0.820944    0.883230
H     -2.838350    1.936406   -0.251085
H     -1.492667    1.458232   -1.330065
H     -3.010546    0.230283   -2.405632
H     -4.230349    0.398395   -1.113274
H     -2.941618   -0.950178   -1.054828
H      0.427536    1.923833   -1.892541
H      1.674448    3.918724   -2.023923
H      3.681819    4.293046   -0.664369
H      4.377550    2.590459    0.907502
H      3.048509    0.436707    1.116095
