59

C     -3.437436    1.072336   -1.490090
C     -4.359101    2.066280   -1.713811
C     -5.486908    2.085032   -0.898732
C     -5.656054    1.137022    0.086903
C     -4.697053    0.136108    0.289919
C     -3.578379    0.104694   -0.505693
C     -2.799972   -0.994841   -0.088896
C     -3.453734   -1.593750    0.929878
N     -4.600998   -0.882669    1.134061
C     -3.014062   -2.782521    1.686234
C     -1.523383   -1.250133   -0.766307
C     -0.820862   -2.504090   -0.608255
C      0.248849   -2.596171    0.456779
N      1.179089   -1.467925    0.322379
C      2.195794   -1.678723    1.315792
C      3.324245   -0.640192    0.997653
C      3.755757   -0.992503   -0.379886
C      4.811679   -0.302352   -1.067677
C      5.665935    0.788403   -0.728734
C      6.645003    1.196366   -1.664383
C      7.505848    2.231144   -1.431528
C      7.395330    2.888700   -0.226920
F      8.266983    3.928477    0.001720
C      6.453841    2.519834    0.709408
C      5.575469    1.458393    0.462560
O      5.029367   -0.799043   -2.275931
C      0.313340   -0.322095    0.672817
C     -0.584563   -0.088472   -0.515701
O     -6.454970    3.060178   -1.070096
C     -7.589498    3.084782   -0.253527
H     -2.575721    1.057346   -2.132222
H     -4.243375    2.825511   -2.485729
H     -6.515370    1.102904    0.752081
H     -5.315253   -1.107072    1.861484
H     -2.256937   -2.570329    2.462766
H     -3.920232   -3.081305    2.319257
H     -2.853019   -3.694316    1.092576
H     -1.759968   -1.144265   -1.886463
H     -0.175396   -2.610826   -1.567243
H     -1.377632   -3.451054   -0.645249
H     -0.136380   -2.575512    1.478550
H      0.805068   -3.543693    0.297366
H      1.810094   -1.474101    2.318589
H      2.694241   -2.664295    1.239151
H      4.082085   -0.865229    1.771252
H      2.821027    0.322385    1.099225
H      3.913279   -2.123720   -0.391878
H      2.789721   -0.871110   -1.011320
H      6.740490    0.670765   -2.629215
H      8.252672    2.537978   -2.150351
H      6.391792    3.061465    1.655171
H      4.867811    1.221132    1.220875
H      0.862290    0.562222    0.966045
H     -0.372080   -0.672657    1.503386
H      0.040882    0.123404   -1.422526
H     -1.169480    0.842690   -0.301388
H     -8.351804    3.809154   -0.630769
H     -7.298714    3.385741    0.787345
H     -8.059647    2.064517   -0.161564
