52

C     -3.550233   -2.035479    1.027772
N     -3.771426   -3.353911    1.025298
C     -3.700020   -4.070681   -0.109027
C     -3.395352   -3.475400   -1.318147
N     -3.174906   -2.134183   -1.288583
C     -3.247179   -1.426969   -0.158812
N     -3.003674   -0.032044   -0.215710
C     -1.644431    0.378054   -0.040175
C     -1.086928   -0.033986    1.310821
C      0.416412    0.238426    1.251624
N      0.992924   -0.863563    0.512804
C      2.322609   -0.560632    0.026717
C      3.283788   -0.448118    1.171959
C      4.648499   -0.136940    0.672749
C      5.518480   -1.142449    0.356574
C      6.783346   -0.852327   -0.106361
C      7.183379    0.447101   -0.255071
C      6.327157    1.481116    0.056035
C      5.064119    1.165094    0.518408
C      0.125161   -1.332198   -0.542992
C     -0.741670   -0.227739   -1.100959
C     -4.096914    0.827368   -0.435001
C     -4.057152    2.277257   -0.525111
C     -5.153110    3.121005   -0.745225
C     -4.707362    4.421716   -0.764584
C     -3.352563    4.337867   -0.555981
O     -3.019600    3.079903   -0.422793
O     -5.283908    0.321011   -0.577798
H     -3.595300   -1.414419    1.910962
H     -3.878860   -5.142350   -0.115821
H     -3.332794   -4.044403   -2.252171
H     -1.534529    1.464251   -0.093259
H     -1.480008    0.552753    2.141292
H     -1.208613   -1.127430    1.441791
H      0.658653    1.164042    0.733230
H      0.861935    0.211186    2.273934
H      2.639377   -1.469912   -0.564071
H      2.375744    0.322685   -0.609932
H      3.346138   -1.458377    1.653558
H      2.940937    0.308924    1.900358
H      5.252672   -2.192288    0.455788
H      7.461753   -1.683766   -0.352834
H      8.174874    0.675262   -0.618122
H      6.655990    2.522704   -0.066140
H      4.418932    2.017241    0.752596
H      0.762457   -1.689293   -1.375303
H     -0.516398   -2.160946   -0.200607
H     -0.133078    0.549232   -1.603551
H     -1.389502   -0.680913   -1.877798
H     -6.181784    2.793231   -0.877765
H     -5.282993    5.309667   -0.909776
H     -2.695051    5.203622   -0.514789
