50

C     -2.456388   -2.448597    1.336050
C     -1.969312   -2.553648   -0.069438
C     -1.475756   -1.270302   -0.669455
C     -0.181738   -0.887931   -0.023286
N      0.398312    0.325565   -0.509272
C      0.879370    0.281161   -1.855778
C      2.267720   -0.268589   -1.858336
C      2.658998   -0.332744   -0.405275
C      1.625947    0.547838    0.259092
C      4.033367    0.104347   -0.153310
C      4.404482    1.380001   -0.519100
C      5.680206    1.852906   -0.311005
C      6.640408    1.049791    0.280168
C      6.291681   -0.224524    0.652449
C      5.000414   -0.682944    0.433953
C     -2.545118   -0.268542   -0.563437
C     -2.707315    0.638438   -1.590356
C     -3.701820    1.585703   -1.518553
C     -4.518877    1.603385   -0.409291
O     -5.579706    2.452711   -0.109378
C     -5.686119    2.410813    1.313329
O     -5.357351    1.034145    1.539319
C     -4.346775    0.682454    0.623223
C     -3.360463   -0.255272    0.549307
C     -3.215909   -1.212596    1.670599
H     -1.630537   -2.645158    2.082419
H     -3.146014   -3.329178    1.497449
H     -2.751375   -2.998739   -0.694449
H     -1.084935   -3.249436   -0.052966
H     -1.249268   -1.503356   -1.749945
H     -0.318774   -0.746105    1.089039
H      0.491693   -1.770496   -0.104917
H      0.884604    1.329421   -2.263498
H      0.264894   -0.305006   -2.547938
H      2.956089    0.388116   -2.444360
H      2.312326   -1.266875   -2.355008
H      2.548996   -1.366170   -0.061070
H      1.910044    1.600498    0.321017
H      1.466854    0.154927    1.303157
H      3.673021    2.027472   -0.981555
H      5.995596    2.846276   -0.588774
H      7.651442    1.402438    0.453971
H      6.984623   -0.918305    1.122600
H      4.703556   -1.695269    0.723994
H     -2.057926    0.610634   -2.454982
H     -3.792786    2.275195   -2.344947
H     -4.921940    3.088827    1.721014
H     -6.724179    2.652425    1.568866
H     -4.243484   -1.449279    2.014104
H     -2.700779   -0.676424    2.518301
