11

O     -2.222059    1.007459   -0.657475
C     -1.161542    0.440643   -0.322930
C      0.037152    1.119441   -0.263266
C      1.182852    0.419134    0.119387
N      1.156750   -0.888960    0.430248
N     -0.015022   -1.494173    0.357846
C     -1.160685   -0.901372    0.001148
H      0.106713    2.184245   -0.507301
H      2.137177    0.928157    0.174449
H      2.039183   -1.379876    0.713268
H     -2.100518   -1.434697   -0.045374
