38

C      0.784566    1.758673   -0.349000
C      0.444916    3.110459   -0.216404
C     -0.855359    3.411105    0.107705
C     -1.788347    2.402159    0.294161
C     -1.437130    1.074769    0.159698
C     -0.136691    0.752107   -0.165285
C      0.589704   -0.511651   -0.387077
C      2.067582   -0.377960   -0.261988
C      2.683328   -0.135269    0.944160
C      4.040531   -0.009188    1.106465
C      4.815116   -0.139022   -0.032907
C      4.220029   -0.382166   -1.251059
C      2.856194   -0.503453   -1.381171
O      0.211505   -1.368414    0.673001
C     -0.727261   -2.300668    0.241514
C     -2.074252   -1.884660    0.797004
N     -2.678452   -0.985322   -0.167618
C     -2.714049    0.332923    0.438886
C     -3.999961   -1.426991   -0.563414
H      1.818033    1.572833   -0.604310
H      1.191992    3.883349   -0.367021
H     -1.195971    4.427593    0.227907
H     -2.815441    2.628397    0.549758
H      0.351291   -0.998927   -1.346420
H      2.082072   -0.030376    1.853683
H      4.509724    0.183526    2.073050
H      5.902173   -0.048097    0.035623
H      4.871954   -0.479540   -2.137329
H      2.415547   -0.697840   -2.370724
H     -0.482428   -3.299451    0.691958
H     -0.748082   -2.390681   -0.866650
H     -2.723626   -2.785211    0.988246
H     -1.936805   -1.408618    1.793846
H     -3.540201    0.897786   -0.052473
H     -2.871612    0.242224    1.539381
H     -4.173144   -1.126726   -1.617436
H     -4.795021   -0.890703    0.025115
H     -4.162420   -2.496969   -0.402874
