56

C     -2.832912    2.657630    1.386314
C     -2.016379    3.623796    0.808590
C     -0.943363    3.245171   -0.016539
C     -0.684192    1.911581   -0.267220
C     -1.555821    1.046254    0.347868
C     -2.597127    1.312680    1.151160
C     -3.305690    0.176594    1.741427
C     -2.911733   -1.150726    1.169968
C     -1.534603   -1.399012    0.751527
C     -1.186874   -0.296435   -0.154153
C      0.285559   -0.042383   -0.178135
O      0.257169    1.119741   -0.991601
C      1.012439   -1.226409   -0.405157
C      0.768631   -2.116352    0.833143
C     -0.424161   -1.634947    1.679685
O      2.423028   -0.981176   -0.438703
C      3.250137   -1.423337   -1.430629
C      4.678808   -1.136788   -1.401439
C      5.537195   -1.569053   -2.386581
N      6.870311   -1.288269   -2.337304
C      7.392218   -0.570316   -1.309489
C      6.554103   -0.124117   -0.307568
C      5.203897   -0.408490   -0.357458
O      2.785914   -2.082253   -2.378868
C     -1.869948   -0.477771   -1.426928
C     -3.337473   -0.617650   -1.148182
N     -3.705026   -1.422585   -0.044223
C     -3.805672   -2.819340   -0.317131
O     -0.100730    4.168612   -0.614101
C     -0.362135    5.535147   -0.360473
H     -3.667857    2.897804    2.028852
H     -2.189638    4.670429    0.981269
H     -3.097715    0.105253    2.851430
H     -4.419793    0.270427    1.596391
H     -3.237095   -1.937831    1.897366
H     -1.579390   -2.365304    0.136765
H      0.552714    0.338167    0.834180
H      0.800607   -1.825274   -1.332694
H      0.611651   -3.144664    0.498621
H      1.638898   -2.087732    1.513047
H     -0.148357   -0.826024    2.354547
H     -0.667039   -2.516374    2.319655
H      5.113502   -2.144065   -3.207984
H      8.454653   -0.336601   -1.253723
H      6.999421    0.450568    0.506525
H      4.591118   -0.036295    0.451317
H     -1.733517    0.419874   -2.086296
H     -1.552045   -1.372115   -2.020090
H     -3.794506    0.405438   -1.034270
H     -3.803507   -1.049904   -2.058091
H     -4.876375   -3.122383   -0.481182
H     -3.351461   -3.415855    0.502162
H     -3.192924   -3.064397   -1.227867
H     -1.422125    5.783948   -0.546067
H      0.268999    6.189920   -0.994476
H     -0.143786    5.703196    0.719738
