45

C      5.685277   -0.158977   -1.028860
C      6.944319   -0.182798   -0.433534
C      7.087307    0.056770    0.916940
C      5.957941    0.322471    1.676151
C      4.718146    0.340128    1.059214
C      4.562120    0.102926   -0.286145
C      3.257687    0.111524   -0.908080
C      2.085348    0.428421   -0.067997
C      0.773343    0.281312   -0.803390
C     -0.316069    0.649049    0.145254
N     -1.654222    0.481494   -0.468577
C     -2.540821    1.113604    0.475763
C     -3.975530    0.976098    0.203184
C     -4.323743    0.672572   -1.233244
C     -4.050323   -0.728381   -1.663385
C     -3.262914   -1.410589   -0.566963
C     -1.846607   -0.963208   -0.506935
C     -3.970838   -1.419338    0.763908
C     -4.638982   -0.097238    1.060329
O      3.099641   -0.140946   -2.119694
F      8.308670    0.025658    1.461828
H      5.645596   -0.358817   -2.085232
H      7.806024   -0.400604   -1.046356
H      6.091855    0.501139    2.721324
H      3.862274    0.548276    1.697903
H      2.222020    1.467559    0.323443
H      2.158323   -0.217571    0.841179
H      0.775816    1.106308   -1.579784
H      0.732518   -0.699778   -1.252268
H     -0.220089    1.676393    0.475432
H     -0.253638   -0.042837    1.002495
H     -2.298553    0.744729    1.483049
H     -2.259954    2.205460    0.442555
H     -4.489860    1.923439    0.460290
H     -3.851445    1.428764   -1.935916
H     -5.411585    0.847068   -1.344762
H     -3.378843   -0.732340   -2.567810
H     -4.976140   -1.289764   -1.903061
H     -3.230715   -2.503592   -0.869945
H     -1.329055   -1.322313   -1.419932
H     -1.392038   -1.450943    0.410162
H     -3.185911   -1.612163    1.542705
H     -4.674169   -2.293754    0.844685
H     -4.547547    0.181277    2.146043
H     -5.694629   -0.166491    0.740492
