47

C     -0.152681   -0.189703    2.615756
C     -0.898146   -0.167776    1.464511
C     -0.412628    0.376889    0.156907
C     -0.994375   -0.526414   -0.870000
C     -0.640733   -1.851443   -0.928986
C     -1.211867   -2.683794   -1.906498
C     -2.123653   -2.225546   -2.818834
C     -2.472935   -0.910967   -2.754194
C     -1.912773   -0.066638   -1.786817
C      1.050677    0.591970    0.064362
C      1.975728   -0.530924    0.222185
N      3.359873   -0.029804    0.152855
C      4.263968   -1.090895    0.647799
C      3.720363    0.243111   -1.239116
C     -1.012023    1.759162    0.006583
C     -0.550074    2.705895   -1.024606
C     -1.434606    3.959385   -0.948186
O     -1.892018    2.092241    0.759211
C     -2.190829   -0.672958    1.466366
C     -2.780462   -1.207549    2.590193
C     -2.040768   -1.235123    3.751649
C     -0.738992   -0.727277    3.748946
H      0.853096    0.214890    2.625730
H      0.041538   -2.322495   -0.244542
H     -0.911139   -3.717507   -1.930940
H     -2.515366   -2.940471   -3.538130
H     -3.195681   -0.535452   -3.468544
H     -2.282039    0.947438   -1.827548
H      1.215919    1.027720   -0.967256
H      1.291290    1.461010    0.733008
H      1.896455   -1.196816   -0.703847
H      1.909076   -1.176779    1.093825
H      3.714680   -1.977660    0.995394
H      4.719096   -0.623384    1.571248
H      5.088992   -1.285233   -0.053029
H      3.009350    0.941063   -1.665495
H      4.703325    0.753108   -1.210479
H      3.725424   -0.696199   -1.835935
H     -0.487175    2.341344   -2.043455
H      0.477528    3.115951   -0.748300
H     -1.665834    4.077281    0.152097
H     -2.385700    3.816442   -1.512801
H     -0.861820    4.843408   -1.258945
H     -2.825397   -0.671505    0.566966
H     -3.801491   -1.609462    2.587944
H     -2.473333   -1.653053    4.658249
H     -0.151844   -0.745483    4.654701
