56

C     -2.116822   -0.282220   -2.402884
C     -2.310127   -1.041068   -3.525796
C     -3.187728   -2.130091   -3.496227
C     -3.866785   -2.444262   -2.325199
C     -3.677680   -1.684867   -1.189993
C     -2.791457   -0.604658   -1.257467
N     -2.455714    0.295385   -0.170326
C     -3.308043    0.663590    0.915151
C     -4.307655   -0.109655    1.463444
C     -4.730997   -1.448968    1.075360
C     -4.476616   -2.135537   -0.040919
C     -5.037484    0.436780    2.524246
C     -4.773077    1.701441    3.009793
C     -3.759782    2.424776    2.417947
C     -3.004086    1.924074    1.357723
C     -1.156665    0.858842   -0.209546
C     -0.364131    0.652551    1.107338
C      0.978533    1.313311    0.936463
N      1.649221    0.743489   -0.172025
C      2.104149   -0.590095   -0.094793
C      3.460818   -0.729227    0.569973
N      4.389977    0.051727   -0.222448
C      5.751591   -0.062421    0.190475
C      6.294001   -1.464602   -0.089352
O      6.215669   -1.726821   -1.469475
C      3.989170    1.440463   -0.121266
C      2.624682    1.645581   -0.743666
H     -1.464203    0.562469   -2.394075
H     -1.785403   -0.803695   -4.444462
H     -3.362895   -2.745995   -4.354895
H     -4.548201   -3.277436   -2.269438
H     -5.338720   -1.967431    1.784414
H     -4.879754   -3.120507   -0.143965
H     -5.819248   -0.156107    2.959996
H     -5.366006    2.088398    3.837520
H     -3.557710    3.409406    2.799719
H     -2.213531    2.465964    0.872850
H     -0.494633    0.199806   -0.861405
H     -1.016924    1.847242   -0.625424
H     -0.144279   -0.449214    1.247075
H     -0.910382    0.907770    1.994006
H      0.889759    2.417342    0.815373
H      1.553532    1.110264    1.874499
H      1.368374   -1.287249    0.287626
H      2.288329   -0.923200   -1.168099
H      3.713358   -1.808870    0.577785
H      3.426152   -0.275082    1.576963
H      5.901468    0.149984    1.270056
H      6.373661    0.632235   -0.410355
H      5.703162   -2.220694    0.436823
H      7.335760   -1.539847    0.281635
H      6.590531   -0.977926   -2.002191
H      4.693276    2.105715   -0.620313
H      3.912079    1.703077    0.963001
H      2.300544    2.677001   -0.492820
H      2.718938    1.579063   -1.828430
