45

C      1.107365    2.552074   -0.235714
C      1.773847    3.616773   -0.841754
C      3.039566    3.421563   -1.298023
C      3.635562    2.191506   -1.156066
C      3.005529    1.146098   -0.571194
C      1.723255    1.290987   -0.093345
N      1.026561    0.230207    0.533336
C      1.567587   -1.076007    0.734874
C      2.823631   -1.480816    0.355672
C      3.333253   -2.733792    0.543629
C      2.562331   -3.692857    1.154784
C      1.289292   -3.347081    1.558496
C      0.801383   -2.069926    1.354316
S      3.877314   -0.336588   -0.446256
O      5.108270   -0.178919    0.425793
O      4.308353   -0.870892   -1.782502
C     -0.341441    0.448363    0.977448
C     -1.379143    0.056998   -0.052015
C     -2.728885    0.363562    0.582672
N     -3.835202    0.025182   -0.307888
C     -5.106085    0.384288    0.305100
C     -3.823947   -1.380339   -0.675343
C     -1.288069    0.789269   -1.351613
H      0.111963    2.741167    0.124557
H      1.236289    4.548419   -0.913431
H      3.551039    4.250918   -1.767534
H      4.654857    2.110280   -1.547249
H      4.355546   -2.990277    0.213092
H      2.970093   -4.688756    1.303494
H      0.685617   -4.112310    2.041312
H     -0.199187   -1.908659    1.692875
H     -0.575289   -0.113735    1.914199
H     -0.569243    1.497488    1.217843
H     -1.303552   -1.027858   -0.304370
H     -2.835099    1.420719    0.840495
H     -2.799806   -0.210346    1.547470
H     -5.168792    1.495884    0.341320
H     -5.920716   -0.027289   -0.324428
H     -5.178967    0.020810    1.345756
H     -4.840274   -1.806518   -0.507297
H     -3.093808   -1.930358   -0.052361
H     -3.578078   -1.477139   -1.745824
H     -1.588063    1.851155   -1.249950
H     -2.085543    0.352464   -2.022506
H     -0.309311    0.654289   -1.861871
