51

C      2.045537   -1.402237    0.249891
C      2.893192   -2.290542    0.899577
O      2.594838   -3.636916    1.018377
C      3.410884   -4.566149    1.659154
C      4.071388   -1.833143    1.448234
C      4.378272   -0.491357    1.334863
C      3.513017    0.348202    0.685848
C      2.326525   -0.043262    0.119546
N      1.415871    0.816497   -0.569445
C      1.654633    2.194227   -0.742082
C      2.757317    2.892541   -0.292219
C      2.932811    4.220640   -0.482026
C      1.999335    4.977621   -1.152004
C      0.871901    4.306166   -1.620398
C      0.714925    2.949581   -1.414381
S      4.023268    2.049528    0.592711
C      0.183705    0.207043   -1.070506
C     -0.714280    0.054319    0.099848
C     -2.035438   -0.578810   -0.171219
N     -2.863813    0.093060   -1.101739
C     -3.957941   -0.804748   -1.431439
C     -4.726618   -1.233766   -0.207901
C     -3.864406   -1.783641    0.879289
C     -2.718735   -0.837342    1.164730
C     -3.415610    1.334065   -0.683343
H      1.159524   -1.868396   -0.150153
H      4.488913   -4.445872    1.426911
H      3.062798   -5.600358    1.488698
H      3.313269   -4.390165    2.767614
H      4.757984   -2.497535    1.963197
H      5.306502   -0.151262    1.771130
H      3.813245    4.713355   -0.109315
H      2.099012    6.037319   -1.325583
H      0.109206    4.871538   -2.156252
H     -0.215753    2.563849   -1.826205
H      0.427438   -0.791514   -1.563045
H     -0.257797    0.723471   -1.938450
H     -0.913998    1.122921    0.459481
H     -0.171062   -0.373055    0.948275
H     -1.833945   -1.602812   -0.588032
H     -4.659683   -0.256899   -2.085707
H     -3.610414   -1.712787   -1.974389
H     -5.358422   -0.441127    0.204952
H     -5.413097   -2.055373   -0.535529
H     -3.381795   -2.761235    0.587448
H     -4.448402   -1.876946    1.797769
H     -3.008786    0.071720    1.680300
H     -1.940343   -1.343449    1.800691
H     -3.171461    2.096315   -1.479874
H     -4.545210    1.328931   -0.666975
H     -3.098300    1.697788    0.289676
