38

C     -3.467540    1.359100    0.376319
C     -3.874990   -0.028963    0.063751
C     -5.068992    0.025501   -0.902360
C     -2.876204   -0.930086   -0.549481
C     -1.636660   -1.237519    0.196223
N     -0.788682   -0.133723    0.544944
C      0.374086   -0.625806    1.271133
C      1.339527   -1.400255    0.404234
C      2.483729   -1.844919    1.282838
O      3.746134   -1.442454    0.758123
C      3.924674   -0.150197    0.289802
C      5.016369    0.638904    0.477872
C      5.110508    1.923886   -0.028624
C      4.066086    2.456973   -0.761216
C      2.952169    1.647242   -0.950572
C      2.852727    0.361205   -0.446482
O      1.766972   -0.470555   -0.612242
H     -4.336273    2.042568    0.107379
H     -3.274066    1.603814    1.426844
H     -2.664691    1.725982   -0.331145
H     -4.321170   -0.470219    1.011063
H     -4.681820    0.028994   -1.943610
H     -5.617876    0.964597   -0.699364
H     -5.677267   -0.864777   -0.721883
H     -3.403536   -1.918848   -0.721680
H     -2.583736   -0.619437   -1.588459
H     -1.020501   -1.901547   -0.490445
H     -1.840638   -1.903478    1.076586
H     -1.196712    0.606377    1.115649
H     -0.001366   -1.288445    2.114669
H      0.868830    0.208836    1.817254
H      0.873709   -2.296408   -0.026037
H      2.495749   -2.924926    1.445942
H      2.414467   -1.380026    2.293945
H      5.844148    0.208753    1.063236
H      5.993069    2.514380    0.142621
H      4.091104    3.467558   -1.184840
H      2.118665    2.047919   -1.523394
