20

C      0.295205    1.478181   -0.468052
C      1.425161    0.571189   -0.141581
N      2.708717    0.901263   -0.016649
N      3.341321   -0.220740    0.277124
N      2.487847   -1.225283    0.335953
N      1.294733   -0.749037    0.078288
C      0.133680   -1.607437    0.066490
C     -1.079288   -0.962724   -0.534975
C     -1.672067    0.127802    0.299794
C     -0.770098    1.275780    0.578962
H      0.617712    2.535410   -0.544323
H     -0.092424    1.201996   -1.469575
H     -0.097118   -1.980458    1.064275
H      0.384584   -2.482924   -0.577440
H     -0.918654   -0.658964   -1.589672
H     -1.862326   -1.767737   -0.582273
H     -2.561945    0.506868   -0.244955
H     -2.046381   -0.339707    1.253246
H     -1.318979    2.255190    0.657332
H     -0.269682    1.141332    1.558030
