36

C     -1.523767    3.813176   -0.665172
C     -1.405762    2.618245    0.207180
O     -1.799772    2.632819    1.384864
O     -0.851488    1.479614   -0.299007
C     -0.675022    0.274364    0.406911
C      0.744190   -0.099542    0.609364
C      1.554612   -0.214904   -0.650292
C      2.854041   -0.903202   -0.258991
C      3.576839   -0.164334    0.833063
C      2.705977    0.447576    1.868306
N      1.437379    0.951399    1.388069
C     -1.522365   -0.825325   -0.109530
C     -2.830663   -0.592938   -0.447757
C     -3.603239   -1.617527   -0.918433
C     -3.055346   -2.869414   -1.046047
C     -1.749285   -3.151605   -0.720038
C     -0.991344   -2.074519   -0.241438
H     -0.899895    3.728408   -1.570244
H     -1.143495    4.727400   -0.127489
H     -2.559876    4.033611   -0.941989
H     -1.089373    0.487119    1.441886
H      0.882188   -1.008776    1.202681
H      1.771888    0.772431   -1.110365
H      1.108159   -0.829093   -1.445737
H      3.502316   -0.913352   -1.157967
H      2.645037   -1.956826    0.005716
H      4.242159   -0.909324    1.345836
H      4.279311    0.570219    0.361794
H      3.234156    1.307988    2.330561
H      2.475311   -0.257882    2.711242
H      1.551085    1.809726    0.796953
H     -3.273609    0.421111   -0.344145
H     -4.647439   -1.454209   -1.193548
H     -3.640848   -3.721246   -1.420389
H     -1.336232   -4.146588   -0.828167
H      0.034173   -2.364600    0.001976
