31

C     -0.053649    0.926575    0.714809
C      1.220543    0.330671    0.249519
C      1.499824   -0.109362   -1.001788
C      2.745067   -0.656816   -1.331817
C      3.722397   -0.762369   -0.387851
C      3.465800   -0.326229    0.880204
C      2.251815    0.203816    1.188229
C     -1.129587    0.990935   -0.312925
N     -1.958232   -0.182891   -0.361759
C     -1.470621   -1.250265    0.464655
C     -1.087365   -0.810463    1.855737
O     -0.467322    0.397651    1.924230
C     -2.062644   -0.687541   -1.717117
C     -2.098372    2.156110   -0.033308
H      0.208449    2.004548    0.954209
H      0.757076   -0.039721   -1.753951
H      2.942807   -1.001552   -2.341024
H      4.692045   -1.185737   -0.633973
H      4.216206   -0.392767    1.658930
H      2.055126    0.550255    2.205262
H     -0.763714    1.198271   -1.335447
H     -0.635529   -1.808745   -0.023639
H     -2.307912   -2.007123    0.523268
H     -0.494658   -1.646096    2.315961
H     -2.027378   -0.755348    2.447415
H     -1.950024    0.156043   -2.431381
H     -3.035133   -1.171382   -1.911964
H     -1.254071   -1.430279   -1.901221
H     -1.720883    3.083759   -0.546198
H     -2.154608    2.288092    1.055030
H     -3.105452    1.937958   -0.412096
