25

C      1.610880    0.112150    1.436745
C      2.852564   -0.520810    1.441742
C      3.382914   -1.003806    0.283842
C      2.684461   -0.863045   -0.893359
C      1.440087   -0.226098   -0.884060
C      0.891253    0.267064    0.277797
C     -0.422168    0.928227    0.227004
C     -1.569495   -0.027555    0.430347
N     -2.801385    0.731161    0.360301
N     -2.854874    1.323940   -0.905284
C     -1.585182   -1.067052   -0.660897
H      1.232125    0.476929    2.371908
H      3.408499   -0.632577    2.380276
H      4.362013   -1.507208    0.264226
H      3.080766   -1.236165   -1.825171
H      0.940094   -0.146160   -1.840187
H     -0.552338    1.379280   -0.787514
H     -0.513188    1.778007    0.940748
H     -1.466657   -0.536663    1.400563
H     -2.866913    1.443873    1.119729
H     -3.549055    0.902612   -1.534220
H     -2.824384    2.349381   -0.881698
H     -0.811493   -1.830822   -0.439815
H     -2.610188   -1.530602   -0.662396
H     -1.458336   -0.564061   -1.620626
