40

C     -0.925400    1.886877    1.362781
C     -1.661002    2.955330    1.898646
C     -2.998470    3.089929    1.660995
C     -3.569919    2.128527    0.876388
C     -2.849508    1.092045    0.355234
C     -1.525401    0.909571    0.554657
C     -0.725620   -0.290227    0.259997
C     -1.361867   -1.508770   -0.286824
C     -2.717382   -1.577503   -0.585781
C     -3.363186   -2.738447   -0.903583
C     -2.674913   -3.926066   -0.944641
C     -1.339164   -3.933063   -0.662413
C     -0.723526   -2.718802   -0.339218
S     -3.719078   -0.109603   -0.669172
C      0.600837   -0.158741    0.037723
C      1.624414   -1.156510   -0.249330
C      2.937707   -0.519030   -0.712067
N      3.468708    0.485675    0.129948
C      4.420011    1.257880   -0.649556
C      2.427820    1.427886    0.552678
C      1.186208    1.231463   -0.228028
H      0.091482    1.819800    1.694867
H     -1.174121    3.701323    2.518054
H     -3.574033    3.895295    2.059789
H     -4.635126    2.188103    0.657565
H     -4.440633   -2.761488   -1.133818
H     -3.189727   -4.848860   -1.199164
H     -0.770181   -4.869290   -0.690343
H      0.273922   -2.830769   -0.053284
H      1.876777   -1.841809    0.583851
H      1.324618   -1.724482   -1.178737
H      2.844147   -0.273145   -1.775950
H      3.706814   -1.366339   -0.703195
H      5.408169    0.754461   -0.708723
H      4.022886    1.295404   -1.685323
H      4.541026    2.290448   -0.269131
H      2.836413    2.432600    0.516282
H      2.262824    1.160942    1.621985
H      1.607561    1.140835   -1.335549
H      0.475914    2.008552   -0.377608
