65

C     -2.784341    0.144085   -0.690798
C     -3.784414    0.910457   -1.277087
S     -3.451792    2.586127   -1.648071
N     -3.946898    3.567320   -0.308171
C     -5.354111    3.452415   -0.061172
C     -3.153839    3.358101    0.867513
O     -4.275789    2.970658   -2.839422
O     -1.977395    2.758054   -1.897667
C     -5.009372    0.355197   -1.550916
C     -5.245189   -0.951724   -1.246410
C     -4.213377   -1.693339   -0.655935
C     -2.975963   -1.179619   -0.365580
N     -1.894935   -1.864923    0.232057
C     -2.045406   -3.252239    0.600423
C     -3.135579   -4.022950    0.442697
C     -3.209038   -5.374893    0.831530
C     -2.145031   -5.975859    1.400979
C     -1.005856   -5.250983    1.590290
C     -0.970279   -3.938170    1.199870
S     -4.598007   -3.360040   -0.295195
C     -0.620879   -1.351319    0.514368
C      0.061056   -0.139196    0.434592
C      1.504857   -0.461937    0.989504
N      2.225218    0.768604    0.917126
C      2.432044    1.107513   -0.463848
C      3.831425    1.690924   -0.710618
C      4.794253    0.564005   -0.536239
C      6.228519    0.957334   -0.439477
C      6.733872    1.690240   -1.664877
O      5.977267    2.849246   -1.823905
C      4.426788   -0.159061    0.747086
C      3.483320    0.621092    1.604449
H     -1.834854    0.585609   -0.479372
H     -5.516159    2.704285    0.733983
H     -5.709152    4.457534    0.287710
H     -5.933106    3.125313   -0.950773
H     -3.812558    3.208092    1.771769
H     -2.421022    2.533361    0.783055
H     -2.580463    4.302633    1.085803
H     -5.776847    0.977714   -2.011295
H     -6.207525   -1.385862   -1.462397
H     -4.119945   -5.920272    0.670312
H     -2.164155   -7.039410    1.719060
H     -0.138983   -5.692923    2.040060
H     -0.035609   -3.431071    1.378135
H      0.091870   -2.099306    0.012793
H     -0.482797   -1.618056    1.631923
H      0.433555    0.260194   -0.564433
H     -0.165598    0.710157    1.147603
H      1.319136   -0.726900    2.046420
H      1.920841   -1.283977    0.384493
H      1.713741    1.834413   -0.856543
H      2.388704    0.207673   -1.142017
H      4.028925    2.554115   -0.066147
H      3.777056    2.076897   -1.764400
H      4.653229   -0.121012   -1.417726
H      6.378125    1.563949    0.467977
H      6.843141    0.048455   -0.325118
H      7.779227    2.015980   -1.496056
H      6.738541    1.061319   -2.560974
H      6.465081    3.650658   -1.499198
H      5.338834   -0.377156    1.370675
H      3.943701   -1.136272    0.521795
H      3.285673    0.000910    2.511005
H      3.898265    1.577836    1.969325
