40

C      6.525890    0.783773   -0.903288
O      5.670033    0.347841   -1.937529
C      4.373514    0.405059   -1.386695
C      3.125107    0.420102   -1.978150
C      1.988647    0.480649   -1.202612
C      2.034741    0.528329    0.172995
C      0.792048    0.590733    0.945445
N      0.275684   -0.668718    1.380671
C     -0.040019   -1.594467    0.346301
C     -1.411902   -1.404295   -0.248401
N     -2.356822   -0.895385    0.736496
C     -2.046819   -1.095205    2.117943
C     -0.695420   -0.537140    2.408307
C     -3.532486   -0.229866    0.281863
N     -3.769875   -0.071788   -1.031701
C     -4.864306    0.548732   -1.507988
C     -5.807817    1.058857   -0.639412
C     -5.559747    0.894090    0.711210
N     -4.448029    0.264973    1.133261
C      3.290912    0.512061    0.735448
C      4.443230    0.452015   -0.014222
O      5.819791    0.422854    0.282534
H      6.715486    1.877652   -0.937481
H      7.482792    0.226442   -1.000221
H      3.052545    0.383763   -3.056832
H      1.044121    0.489552   -1.746948
H     -0.024655    1.130858    0.424746
H      0.990786    1.194497    1.874735
H      0.699544   -1.508355   -0.472417
H      0.032844   -2.652239    0.704567
H     -1.800443   -2.389409   -0.580830
H     -1.407794   -0.753992   -1.144095
H     -2.776189   -0.604519    2.796344
H     -2.000275   -2.199897    2.297934
H     -0.319901   -1.021280    3.338370
H     -0.839606    0.546420    2.693085
H     -5.040952    0.668116   -2.575126
H     -6.690233    1.559105   -1.020605
H     -6.294514    1.291234    1.393884
H      3.370087    0.548845    1.830788
