35

C      3.768593   -0.741837    0.522091
C      2.308417   -0.296243    0.766696
C      1.817978    0.277690   -0.508434
C      0.454587    0.814860   -0.574127
C      0.267913    1.325765   -2.021421
C     -0.714321    0.049203   -0.147748
C     -0.968623   -1.243664   -0.837663
C     -2.182710   -1.938807   -0.323594
C     -2.067194   -3.142113    0.209673
C     -0.807601   -0.064773    1.337309
O     -0.688615   -1.136187    1.973843
N     -1.054183    1.118396    2.136246
C     -1.749071    2.210459    1.561345
O     -1.990080    3.273690    2.228524
N     -2.178007    2.106125    0.220917
C     -1.911778    0.938008   -0.512455
O     -2.629283    0.593728   -1.467526
H      4.428141    0.155985    0.697077
H      4.042745   -1.547129    1.231667
H      3.909130   -1.033789   -0.531519
H      1.813514   -1.239350    1.070644
H      2.337307    0.463637    1.542117
H      2.506048    1.166556   -0.702375
H      2.089731   -0.366169   -1.406430
H      0.476090    1.793335    0.008907
H     -0.601638    1.976336   -2.107530
H      0.105653    0.452104   -2.670085
H      1.210075    1.821300   -2.344859
H     -0.145200   -1.956633   -0.825068
H     -1.193489   -1.095242   -1.939154
H     -3.170210   -1.490785   -0.370244
H     -1.126099   -3.659538    0.295602
H     -2.942190   -3.649680    0.583183
H     -0.721018    1.163698    3.129012
H     -2.694613    2.901065   -0.224619
