42

C     -0.469263    2.791826    1.324411
C     -1.017249    4.061751    1.291669
S     -2.324736    3.899366    0.245699
C     -2.177711    2.215627   -0.152241
C     -1.050445    1.845494    0.591887
C     -0.490718    0.446577    0.528372
C     -1.407496   -0.715257    0.376872
C     -2.437411   -0.831776   -0.538190
C     -2.825437    0.168239   -1.542674
C     -3.129021    1.516039   -1.045340
C     -3.198906   -1.951717   -0.532057
C     -2.908533   -2.954786    0.410998
C     -1.863698   -2.807022    1.321824
C     -1.093376   -1.681209    1.321031
C      0.743219    0.215304    0.675235
C      1.914844    1.063094    0.948876
C      3.182084    0.321992    0.562542
N      3.186188   -0.157645   -0.770631
C      2.084340   -0.997319   -1.055855
C      1.274428   -1.141121    0.278464
C      4.465633   -0.705980   -1.089415
H      0.418882    2.585356    1.979440
H     -0.616842    4.925041    1.858564
H     -1.991495    0.233023   -2.318143
H     -3.690740   -0.189108   -2.153935
H     -4.146110    1.462998   -0.527598
H     -3.268253    2.180293   -1.941363
H     -4.006434   -2.083290   -1.223685
H     -3.496153   -3.858973    0.441284
H     -1.651958   -3.586391    2.040953
H     -0.261547   -1.480303    2.021884
H      1.942949    1.964203    0.324989
H      2.097735    1.226617    2.042502
H      3.508639   -0.400679    1.335024
H      3.989552    1.124493    0.604307
H      2.452881   -2.036034   -1.232824
H      1.393302   -0.653140   -1.824632
H      1.941292   -1.594621    0.976415
H      0.504246   -1.859984   -0.052356
H      5.255199    0.017304   -0.813896
H      4.630874   -1.616922   -0.455700
H      4.537247   -0.961359   -2.174563
