59

C      1.001101    0.220660   -0.294117
C      0.011720    1.351176   -0.612348
C     -1.400150    0.900334   -0.610093
C     -1.723264    0.189564    0.668014
C     -3.079551   -0.420621    0.491379
C     -4.025050    0.736036    0.419575
C     -5.098835    0.842099    1.180606
C     -5.408020   -0.212712    2.157977
O     -6.418607   -0.156414    2.904388
C     -4.528821   -1.350748    2.269508
C     -3.463549   -1.415399    1.485984
C     -3.752996    1.816587   -0.538482
C     -2.295025    2.076605   -0.770508
C     -3.210571   -1.106059   -0.878893
C     -0.695833   -0.757961    1.151355
C      0.697926   -0.240853    1.082233
O     -0.726173   -2.009470    0.537720
C      0.554251    1.851975   -1.900366
C      2.068867    1.733186   -1.730116
C      2.297236    0.981952   -0.435468
C      3.495684    0.135887   -0.446733
C      4.549697    0.353182    0.576030
O      5.631239   -0.536894    0.435256
C      5.386835   -1.896723    0.533997
C      6.476622   -2.891236    0.395909
O      4.217791   -2.282520    0.744323
O      3.609334   -0.727605   -1.289125
O      2.336569    1.930964    0.608579
C      0.954833   -0.854425   -1.333951
H      0.196015    2.121611    0.166625
H     -1.541463    0.234312   -1.510674
H     -1.838833    0.992381    1.454552
H     -5.792563    1.671068    1.141026
H     -4.769249   -2.118049    2.992870
H     -2.834791   -2.284837    1.605020
H     -4.292161    2.752464   -0.244236
H     -4.200328    1.521777   -1.515371
H     -1.989372    2.888342   -0.076199
H     -2.114125    2.492454   -1.805016
H     -2.354069   -1.736682   -1.114080
H     -3.478735   -0.379987   -1.667465
H     -4.097519   -1.803443   -0.816589
H     -0.914176   -0.962261    2.241878
H      0.917086    0.581667    1.790536
H      1.393627   -1.077173    1.344120
H     -0.428200   -2.716358    1.182730
H      0.195958    1.187241   -2.714289
H      0.295501    2.901979   -2.080495
H      2.511856    2.754330   -1.694784
H      2.483629    1.236300   -2.607925
H      4.098993    0.270890    1.586793
H      4.953541    1.404368    0.525801
H      7.255506   -2.486073   -0.282630
H      6.866226   -3.126034    1.402879
H      6.118163   -3.833572   -0.096857
H      2.953011    2.663506    0.400472
H      1.493367   -0.511207   -2.253319
H     -0.074108   -1.178027   -1.601303
H      1.523954   -1.721555   -0.944715
