68

C      6.159206    0.667749    1.594399
C      7.603459    1.069466    1.363877
C      5.967194   -0.781602    1.261135
C      4.568355   -1.289468    1.455298
C      3.641375   -0.578368    0.571852
O      4.075507    0.262552   -0.251276
O      2.264681   -0.775491    0.580327
C      1.430054   -0.043852   -0.337816
C      1.630097    1.430164   -0.183931
C      0.289784    2.113971   -0.271097
C     -0.640141    0.994675   -0.479688
C     -2.069706    1.257531   -0.053036
C     -2.763310    1.858860   -1.239339
C     -4.234116    1.919590   -1.205166
C     -4.752573    0.620614   -0.735046
C     -5.714209   -0.016542   -1.373358
C     -6.258380   -1.297415   -0.948796
O     -7.172755   -1.903009   -1.556260
C     -5.700011   -1.888392    0.242606
C     -4.750717   -1.260416    0.872834
C     -4.162329    0.053233    0.472288
C     -4.508924    0.996081    1.640376
C     -2.650397   -0.020560    0.449042
C     -2.155425   -1.230165   -0.302189
O     -2.761926   -2.375549    0.180858
C     -0.682912   -1.409063   -0.248475
C     -0.012480   -0.154874    0.202303
C      0.119578   -0.036685    1.691852
C      1.594263   -0.550979   -1.687471
O      1.108946    0.048026   -2.660897
C      2.320230   -1.791493   -2.078617
O      2.275806   -2.012997   -3.476085
H      5.977048    0.772425    2.685730
H      5.513169    1.376812    1.077066
H      8.084221    0.442613    0.613184
H      8.199485    0.984430    2.305352
H      7.671628    2.129850    1.026875
H      6.256432   -0.881172    0.170441
H      6.716933   -1.415037    1.783123
H      4.614009   -2.392280    1.233578
H      4.281986   -1.239437    2.526602
H      2.358890    1.846802   -0.917855
H      2.059106    1.703712    0.810401
H      0.317657    2.770834   -1.188921
H      0.076689    2.766945    0.590855
H     -0.670740    0.768750   -1.566260
H     -2.039792    2.013874    0.746081
H     -2.279079    2.841279   -1.434236
H     -2.464976    1.226614   -2.127762
H     -4.645948    2.779472   -0.640045
H     -4.596246    2.059640   -2.258039
H     -6.168057    0.403713   -2.290027
H     -6.064213   -2.836453    0.605128
H     -4.349348   -1.725499    1.765412
H     -4.688350    2.018516    1.298772
H     -3.684349    1.028992    2.375034
H     -5.406138    0.649313    2.181699
H     -2.382220   -0.093930    1.547194
H     -2.531352   -1.103880   -1.358155
H     -2.320266   -2.757989    0.975938
H     -0.351885   -2.254083    0.407369
H     -0.339782   -1.615425   -1.282853
H     -0.265161   -0.990538    2.159482
H      1.201575   -0.047416    2.022652
H     -0.286307    0.873658    2.132849
H      3.355545   -1.796803   -1.734257
H      1.755633   -2.687341   -1.672813
H      3.035978   -1.496556   -3.861009
