34

C      2.984472   -0.183088   -0.059232
C      2.024810    0.737881   -0.382299
C      0.804715    0.289295    0.060850
C      1.006740   -0.922490    0.680370
N      2.326896   -1.179873    0.586969
C      2.944187   -2.397021    1.127589
C     -0.043856   -1.691889    1.418144
C     -0.473294    0.947460   -0.107138
N     -0.619019    2.240049   -0.004981
C      0.373507    3.274784    0.267897
C      1.504335    3.191480   -0.710377
N      2.302322    2.029435   -0.985436
O      1.798063    4.216871   -1.358299
C     -1.635140    0.142065   -0.371825
C     -2.856026    0.790644   -0.279977
C     -4.036820    0.206625   -0.660566
C     -4.019744   -1.078468   -1.156394
C     -2.816007   -1.723378   -1.250859
C     -1.648950   -1.119373   -0.865957
H      4.052765   -0.128718   -0.276795
H      3.031865   -3.146683    0.335351
H      3.932277   -2.099189    1.501771
H      2.353816   -2.743931    1.998881
H     -0.896023   -1.095849    1.746017
H      0.475662   -1.907761    2.414244
H     -0.231448   -2.694140    1.025815
H     -0.078315    4.274938    0.266806
H      0.786521    3.069953    1.266187
H      3.117398    2.076860   -1.618405
H     -2.907131    1.818278    0.111828
H     -4.998524    0.737382   -0.580044
H     -4.966703   -1.511744   -1.446618
H     -2.846755   -2.749698   -1.652652
H     -0.746595   -1.670704   -1.040862
