70

C     -2.317014    0.426472    0.072258
F     -2.119568    0.965049   -1.192682
C     -3.791348    0.542398    0.357383
C     -4.431721    0.083569   -0.898674
C     -5.282458    0.829518   -1.553617
C     -5.658063    2.168710   -1.089465
O     -6.484110    2.888553   -1.731467
C     -5.062621    2.652136    0.120499
C     -4.201773    1.877114    0.770594
C     -4.082174   -1.234815   -1.406669
F     -4.021529   -1.229726   -2.810699
C     -2.877477   -1.861087   -0.837980
C     -2.009931   -1.070751    0.063780
C     -0.581748   -1.177239   -0.335969
C      0.346200   -0.436827    0.630420
C      0.009761    0.990498    0.658356
C     -1.450333    1.168861    1.018594
O     -1.700416    2.535131    0.835646
C      1.637613   -0.766379   -0.089226
C      2.811807   -0.184445    0.522038
O      3.495816    0.538383   -0.240082
C      3.332089   -0.305136    1.883080
O      4.548353    0.392621    2.015541
C      4.678340    1.747669    1.810108
O      3.671180    2.420326    1.484437
C      6.027456    2.404676    1.975422
C      6.278242    3.250579    0.755885
O      1.523382   -0.470235   -1.458352
C      2.049163   -1.524627   -2.168574
O      2.210169   -2.585593   -1.292037
C      1.532450   -2.261248   -0.120345
C      0.022847   -2.550262   -0.251427
C      1.222301   -1.992925   -3.329107
C      3.387296   -1.059162   -2.757771
C      0.341156   -1.076328    1.968849
C     -4.211062   -0.403394    1.492928
H     -5.768736    0.508698   -2.486079
H     -5.318933    3.649717    0.499957
H     -3.797208    2.294753    1.679494
H     -4.972847   -1.906177   -1.204494
H     -3.154269   -2.851665   -0.346400
H     -2.240270   -2.229651   -1.702742
H     -2.237103   -1.400084    1.103610
H     -0.452415   -0.689463   -1.305997
H      0.280228    1.557517   -0.258291
H      0.577929    1.493975    1.491556
H     -1.587265    0.854542    2.065990
H     -1.469184    3.033799    1.663622
H      3.496747   -1.369196    2.176196
H      2.573399    0.098975    2.613857
H      5.964735    3.052284    2.881352
H      6.770072    1.614782    2.061037
H      6.645487    2.627674   -0.092620
H      5.409184    3.801618    0.373114
H      7.090469    3.997084    0.943206
H      1.995862   -2.797817    0.701764
H     -0.106702   -3.167834   -1.156892
H     -0.371402   -3.068140    0.649737
H      0.964084   -3.081197   -3.259599
H      0.266186   -1.448911   -3.446881
H      1.793730   -1.934354   -4.303197
H      3.345597    0.023819   -2.871589
H      3.559335   -1.589721   -3.723962
H      4.175023   -1.343871   -2.057540
H      0.284065   -0.275854    2.749969
H     -0.572392   -1.701598    2.154679
H      1.179909   -1.728808    2.215412
H     -3.579700   -0.241047    2.371726
H     -4.345826   -1.432754    1.169998
H     -5.240072   -0.043180    1.778333
