55

H      0.000000    0.000000    0.000000
Cl     0.000000    0.000000    0.000000
Cl    -4.183758   -1.102238    4.837783
C     -4.522479   -0.480745    3.241628
C     -5.689746    0.264734    3.033546
C     -5.954651    0.754309    1.784192
C     -5.083800    0.512542    0.758980
S     -5.517122    1.204448   -0.812600
C     -4.177838    0.743846   -1.931057
C     -4.257209    1.155248   -3.229442
C     -3.304114    0.845658   -4.142832
C     -2.239175    0.091641   -3.711873
C     -2.155693   -0.331450   -2.381831
C     -3.129787   -0.011053   -1.458012
N     -2.979218   -0.478927   -0.122613
C     -1.781832   -1.248483    0.176231
C     -0.653478   -0.294721    0.345829
C      0.664935   -0.969201    0.643431
N      1.656697    0.051608    0.805853
C      2.043942    0.791333   -0.324805
C      3.387571    0.444740   -0.865584
C      4.423843    0.308997    0.190289
C      3.940871    0.442148    1.601820
C      2.594068   -0.159229    1.840059
N      5.185106   -0.928743    0.000093
C      6.289918   -0.770786   -0.835349
O      6.613160   -1.495684   -1.814336
C      7.124680    0.421324   -0.444203
S      5.766014    1.552477    0.006969
C     -3.911564   -0.223866    0.920553
C     -3.660215   -0.708151    2.182788
H     -6.357484    0.445281    3.838591
H     -6.841958    1.323802    1.610257
H     -5.132119    1.754614   -3.518142
H     -3.382392    1.186097   -5.188239
H     -1.472400   -0.162670   -4.427589
H     -1.274071   -0.919698   -2.182756
H     -1.584061   -1.996388   -0.668018
H     -1.891278   -1.967439    1.009601
H     -0.595839    0.421821   -0.461462
H     -0.873644    0.312665    1.264397
H      0.562079   -1.487100    1.623135
H      0.936812   -1.709977   -0.139992
H      2.028973    1.872476   -0.058745
H      1.311829    0.603300   -1.147004
H      3.314010   -0.490647   -1.463366
H      3.700313    1.248622   -1.566009
H      4.664225   -0.153202    2.235411
H      3.992820    1.486428    1.984106
H      2.175978    0.318292    2.774415
H      2.680651   -1.245655    2.089648
H      4.903916   -1.825761    0.455777
H      7.708761    0.192870    0.472240
H      7.720448    0.796090   -1.276168
H     -2.784698   -1.281732    2.444405
