41

C      1.783590    0.359758    0.112588
C      1.329754   -0.521003   -0.830467
C     -0.062691   -0.707674   -1.151953
C     -1.231766   -0.072632   -0.522376
N     -0.969774    1.195580   -0.014973
C     -1.524543    1.657382    1.188993
C     -2.162623    3.035008    0.924518
C     -2.548570    2.854296   -0.539565
C     -1.257614    2.191629   -1.043405
C     -1.767745   -1.078069    0.460777
C     -2.169052   -2.343832   -0.264115
C     -2.761037   -3.343788    0.733966
O     -0.265166   -1.550318   -2.118296
C      2.323451   -1.291188   -1.453581
C      3.653533   -1.169463   -1.134923
C      4.086805   -0.277795   -0.181176
C      3.132084    0.482946    0.435166
C      5.535763   -0.158437    0.177959
H      1.141661    1.001871    0.658523
H     -2.016116    0.035684   -1.337240
H     -0.660591    1.924576    1.876639
H     -2.293096    1.090412    1.692019
H     -3.058833    3.199245    1.572791
H     -1.418881    3.848953    0.981814
H     -3.406417    2.156197   -0.610092
H     -2.725993    3.818851   -1.058023
H     -0.475494    2.939840   -1.149493
H     -1.478876    1.700234   -2.035530
H     -0.919733   -1.405578    1.140184
H     -2.580113   -0.771426    1.099098
H     -1.282587   -2.903147   -0.671155
H     -2.849915   -2.166557   -1.114725
H     -3.145066   -4.246584    0.239994
H     -1.899356   -3.649305    1.370587
H     -3.527353   -2.829815    1.341844
H      2.031969   -1.994460   -2.192008
H      4.409309   -1.773552   -1.624162
H      3.419471    1.195284    1.183776
H      5.991365    0.764024   -0.219751
H      5.595679   -0.136551    1.287677
H      6.024564   -1.060591   -0.230148
