34

C     -1.949872    0.295226    1.072027
C     -1.483463   -0.443349    0.039716
N     -0.105272   -0.589459   -0.225528
C      0.653487    0.589723   -0.245155
C      0.175182    1.835331   -0.573444
N      1.241760    2.670889   -0.448001
N      2.319751    2.008593   -0.068444
C      2.017119    0.716286    0.072897
N      2.904667   -0.337754    0.462770
C      2.799211   -1.720910    0.166926
O      3.632946   -2.501921    0.725075
C      1.782488   -2.337282   -0.752300
C      0.399178   -1.917898   -0.431017
O     -0.480776   -2.828698   -0.314545
C      4.040430    0.092050    1.247230
C     -1.191271    2.199468   -0.989879
C     -2.378653   -1.127322   -0.760526
C     -3.750466   -1.058736   -0.507510
C     -4.188168   -0.298046    0.550420
C     -3.292382    0.377790    1.339279
H     -1.272245    0.837802    1.709678
H      1.236490    3.717988   -0.622198
H      2.062899   -1.975788   -1.783271
H      1.882936   -3.423676   -0.784395
H      3.702217    0.761378    2.091680
H      4.508845   -0.776461    1.776854
H      4.771995    0.588002    0.601413
H     -1.014282    2.991739   -1.804040
H     -1.753144    1.446507   -1.531398
H     -1.757408    2.791355   -0.237395
H     -2.092054   -1.737934   -1.605174
H     -4.489690   -1.572418   -1.098371
H     -5.261922   -0.255095    0.741490
H     -3.670533    0.982616    2.185136
