22

H      0.000000    0.000000    0.000000
C     -0.629648    0.170328    1.280327
C     -1.637030   -0.390577    0.515561
O     -2.952879   -0.325605    0.939666
C     -3.736754    0.797262    0.534504
F     -5.016758    0.692727    1.048833
F     -3.129489    1.939514    1.043397
F     -3.789634    0.931397   -0.826808
C     -1.222046   -0.991287   -0.653363
C      0.075395   -1.057099   -1.074664
C      1.108090   -0.486603   -0.298716
C      0.707602    0.112531    0.864004
S      2.212998    0.665262    1.497514
C      3.231766    0.099892    0.250204
N      2.382803   -0.474099   -0.574986
N      4.651330    0.191615    0.081319
Cl     0.000000    0.000000    0.000000
H     -0.821806    0.661073    2.200876
H     -2.047724   -1.428827   -1.240589
H      0.316586   -1.554495   -2.018559
H      5.300777   -0.023016    0.887872
H      4.996420    0.470005   -0.841825
