19

O      2.090478    2.283975    0.151551
C      1.539487    1.142037    0.059185
N      0.136848    0.923395    0.156573
C      0.012855   -0.493718    0.487804
C      1.044744   -1.071014   -0.453875
C      2.237298   -0.175174   -0.165642
C     -1.394158   -0.884989    0.137338
C     -2.159253    0.382646   -0.011227
C     -1.162943    1.488887    0.069139
O     -1.411636    2.710277    0.062058
H      0.250459   -0.691415    1.550841
H      0.698566   -0.847697   -1.484084
H      1.246754   -2.130878   -0.275283
H      2.792069   -0.492900    0.731930
H      2.893449   -0.102807   -1.061809
H     -1.399668   -1.516563   -0.785763
H     -1.826610   -1.504972    0.961261
H     -2.731393    0.450177   -0.966841
H     -2.857349    0.530734    0.836844
