54

C     -3.125932   -2.264672   -0.589152
C     -3.294096   -1.424319    0.487291
C     -2.697813   -0.068069    0.528161
N     -1.356201   -0.020322    0.048803
C     -0.757144    1.277300    0.101579
C      0.552194    1.339849   -0.658580
N      1.358998    0.163296   -0.437709
N      2.730892    0.184618   -0.248606
C      3.333749    1.060142    0.496380
C      4.773296    0.964321    0.604547
N      5.489999    0.019710   -0.026700
C      6.829989   -0.043720    0.094832
C      7.539994    0.854410    0.871657
C      6.829572    1.826653    1.524760
C      5.441504    1.880243    1.389624
C      7.598476   -1.105873   -0.619386
C      0.691422   -1.124011   -0.411446
C     -0.454440   -0.979778    0.593554
C     -3.535668    0.863873   -0.276430
C     -4.443947    1.669375    0.368212
C     -5.215442    2.529007   -0.345043
C     -5.084091    2.589081   -1.708842
C     -4.183103    1.794605   -2.380624
C     -3.409340    0.930056   -1.646419
C     -4.060119   -1.916958    1.538879
C     -4.614304   -3.175039    1.495437
C     -4.429652   -3.984041    0.414722
C     -3.670170   -3.523235   -0.652397
H     -2.540623   -1.967527   -1.457669
H     -2.747225    0.249380    1.600329
H     -0.491706    1.524681    1.168923
H     -1.413860    2.103075   -0.231325
H      1.114883    2.268782   -0.424233
H      0.302854    1.379837   -1.738624
H      2.729837    1.790867    0.978950
H      8.621370    0.760885    0.937478
H      7.377348    2.531502    2.133268
H      4.949857    2.673756    1.933812
H      8.091070   -1.799327    0.095844
H      6.924346   -1.727251   -1.243774
H      8.428911   -0.675448   -1.232981
H      0.205535   -1.232202   -1.418887
H      1.357223   -1.951917   -0.173017
H     -0.914753   -1.960992    0.813365
H     -0.010085   -0.619578    1.540253
H     -4.526033    1.601090    1.440532
H     -5.947754    3.183790    0.135859
H     -5.705042    3.281966   -2.291367
H     -4.129649    1.890787   -3.451718
H     -2.696815    0.302458   -2.156294
H     -4.206816   -1.261344    2.409483
H     -5.203008   -3.522174    2.331001
H     -4.883070   -4.975623    0.412884
H     -3.525418   -4.165973   -1.507939
