50

C     -4.298191    1.078516   -0.194958
O     -5.479364    1.455742   -0.204585
O     -4.032261   -0.286678   -0.137154
C     -5.035749   -1.261203   -0.090389
C     -5.943391   -1.209310   -1.303211
C     -4.326684   -2.621185   -0.148259
C     -5.847631   -1.248869    1.172141
C     -3.182833    2.051085   -0.244143
C     -1.856191    1.333900   -0.187867
C     -0.750173    2.366502   -0.246920
C      0.593350    1.717977   -0.190411
C      1.234312    1.494411    1.010099
C      2.473220    0.894205    1.081160
C      3.137679    0.484214   -0.057745
C      2.493579    0.709459   -1.256715
C      1.253687    1.310058   -1.329930
N      4.425395   -0.138699    0.018386
C      5.621378    0.672109   -0.063831
C      6.369902    0.711567    1.253793
Cl     7.817886    1.729915    1.053760
C      4.574721   -1.567960    0.182446
C      5.167421   -2.120552   -1.094682
Cl     5.344766   -3.877856   -0.870543
H     -6.197757   -2.225114   -1.665398
H     -6.913117   -0.731047   -0.982671
H     -5.534597   -0.596155   -2.109291
H     -3.662511   -2.652211   -1.059475
H     -5.074649   -3.438961   -0.193884
H     -3.662473   -2.726517    0.717398
H     -6.528120   -2.131873    1.129379
H     -6.416809   -0.305239    1.275994
H     -5.189908   -1.402841    2.045039
H     -3.245721    2.735242    0.630661
H     -3.267183    2.654088   -1.162528
H     -1.733898    0.687759   -1.096441
H     -1.772690    0.700853    0.716395
H     -0.814037    2.972109   -1.151583
H     -0.890954    3.066460    0.616290
H      0.701862    1.822064    1.908910
H      2.963370    0.727307    2.051353
H      3.024505    0.382413   -2.159528
H      0.782940    1.468076   -2.295239
H      5.327632    1.678230   -0.421251
H      6.327090    0.246980   -0.805510
H      6.714723   -0.311593    1.480998
H      5.765393    1.138840    2.076222
H      5.297092   -1.748979    1.022859
H      3.615040   -2.081773    0.388315
H      6.155381   -1.721211   -1.318572
H      4.474566   -1.884256   -1.925147
