29

O      5.038450   -0.669733   -0.614054
C      4.330798    0.495056   -0.349371
O      4.921901    1.556706   -0.034091
C      2.831790    0.555665   -0.423121
C      2.349350   -0.814661   -0.841885
C      0.847575   -0.797732   -0.930457
C      0.169576   -0.461073    0.377417
C     -1.328507   -0.493803    0.125525
C     -2.118525   -0.181913    1.355645
C     -3.585410   -0.243541    1.009080
C     -3.879628    0.754784   -0.043279
O     -4.352773    2.009350    0.348817
O     -3.722489    0.527278   -1.289837
H      5.870887   -0.838730   -0.032460
H      2.416896    0.862677    0.560061
H      2.549073    1.326972   -1.151056
H      2.701285   -1.606224   -0.159394
H      2.816236   -1.043904   -1.829622
H      0.497877   -0.050490   -1.689722
H      0.531330   -1.780771   -1.324502
H      0.442145   -1.135909    1.191315
H      0.433100    0.572978    0.693259
H     -1.505320    0.261848   -0.665448
H     -1.580361   -1.476935   -0.321070
H     -1.889640    0.894618    1.610688
H     -1.856271   -0.808067    2.219443
H     -4.163151    0.017474    1.916833
H     -3.870187   -1.244330    0.607845
H     -4.896006    2.581633   -0.316558
