52

C     -4.885311    0.232805    1.915119
C     -4.514889   -0.096485    0.633203
C     -3.516098   -1.091115    0.400852
C     -2.961104   -1.525326   -0.889852
C     -1.980295   -2.673233   -0.694348
C     -0.570996   -2.167856   -0.551954
N     -0.434653   -0.868373   -0.004198
C      0.856816   -0.529785    0.476794
C      1.772756   -0.390462   -0.725249
C      3.157709   -0.051155   -0.307218
C      3.991834   -1.058220    0.108181
N      5.210643   -0.681839    0.524798
C      5.559707    0.614162    0.521260
N      4.783568    1.621784    0.126227
C      3.525457    1.251943   -0.305761
O      2.708661    2.128079   -0.701067
C      5.317597    2.934517    0.186594
C      6.349441    3.045012    1.280996
S      7.113689    1.376527    1.046914
C      3.632907   -2.508820    0.098105
C     -1.209774    0.182341   -0.537688
C     -2.169991   -0.423219   -1.568906
O     -3.038594   -1.676730    1.430997
C     -5.165534    0.563856   -0.381979
C     -6.148153    1.516826   -0.118092
C     -6.497033    1.825185    1.182275
C     -5.849243    1.167999    2.200193
F     -7.453675    2.750987    1.373742
H     -4.399547   -0.264392    2.761638
H     -3.772572   -1.828346   -1.551097
H     -2.007311   -3.361386   -1.561510
H     -2.246111   -3.270968    0.195729
H     -0.022233   -2.882670    0.107958
H     -0.082863   -2.201808   -1.539646
H      0.799535    0.518258    0.903346
H      1.243724   -1.157523    1.275067
H      1.342022    0.333417   -1.412361
H      1.819490   -1.366272   -1.287244
H      5.791486    3.262828   -0.770537
H      4.501408    3.633195    0.485132
H      5.917914    3.117355    2.298177
H      7.115574    3.785599    1.046893
H      4.063489   -2.926997   -0.844703
H      4.056275   -2.987302    0.988055
H      2.565108   -2.705528    0.051205
H     -1.753366    0.799107    0.203836
H     -0.564918    0.873774   -1.111094
H     -2.736413    0.297643   -2.129730
H     -1.491835   -0.947224   -2.307831
H     -4.966421    0.386117   -1.424724
H     -6.641039    2.019549   -0.927127
H     -6.116836    1.404169    3.213737
