39

C     -4.307903   -0.281911    0.611320
C     -3.515206    0.387359   -0.302706
C     -2.061183    0.261272   -0.260923
C     -1.397955   -0.946622   -0.165119
N     -0.062208   -1.075486   -0.120383
C      0.673918    0.046380   -0.172385
N      2.101242    0.005469   -0.134534
C      2.918140    1.194508   -0.024389
C      3.802384    0.980396    1.211396
N      4.590455   -0.219167    1.080519
C      5.608915   -0.091603    0.084002
C      3.808300   -1.397708    0.881697
C      2.769846   -1.273522   -0.212382
N      0.080146    1.266797   -0.267311
C     -1.261817    1.385898   -0.311741
N     -2.173769   -2.129458   -0.108670
C     -4.153200    1.176188   -1.234922
C     -5.538835    1.302734   -1.265399
C     -6.321262    0.630967   -0.349142
C     -5.699870   -0.162309    0.590084
Cl    -6.707393   -1.005548    1.744044
Cl    -6.342140    2.318604   -2.470223
Cl    -3.217453    2.039988   -2.421452
H     -3.842732   -0.916048    1.365494
H      2.323735    2.112699    0.166458
H      3.573931    1.262928   -0.914124
H      4.465668    1.826534    1.387179
H      3.093765    0.828182    2.073446
H      5.262460   -0.172152   -0.955207
H      6.445714   -0.785925    0.211765
H      6.058298    0.941284    0.172710
H      4.494535   -2.219362    0.561621
H      3.302353   -1.760352    1.802870
H      2.080898   -2.135871   -0.117863
H      3.211911   -1.359579   -1.229042
H     -1.750355    2.358909   -0.385073
H     -2.209669   -2.659321    0.782101
H     -2.709729   -2.495042   -0.917202
H     -7.393934    0.759890   -0.412100
