31

C     -3.346390    0.210432    1.516406
C     -4.635130   -0.004639    1.081910
C     -4.918763   -0.366408   -0.219171
C     -3.851365   -0.506963   -1.081068
C     -2.572786   -0.288670   -0.631139
C     -2.264657    0.066789    0.638338
C     -0.873318    0.245686    0.903047
N     -0.013308    0.029217   -0.187171
C      1.414551    0.114207   -0.293743
C      1.940305    1.452740    0.069949
N      3.280773    1.521023    0.528960
C      4.192194    0.457570    0.193099
C      3.564316   -0.904144    0.211805
C      2.112845   -0.879734    0.646235
O      1.242654    2.511747   -0.015691
S     -1.059864   -0.396093   -1.500747
O     -0.748869   -1.777821   -1.946143
O     -0.986392    0.615329   -2.604322
O     -0.378470    0.580598    2.037242
H     -3.203595    0.495509    2.566110
H     -5.495363    0.104572    1.760969
H     -5.945519   -0.528417   -0.529527
H     -4.081601   -0.791219   -2.101141
H      1.762474   -0.119543   -1.295259
H      3.628289    2.314213    1.100560
H      5.072837    0.482413    0.877858
H      4.584739    0.700085   -0.836710
H      4.169704   -1.590640    0.843701
H      3.594325   -1.359433   -0.819663
H      2.098906   -0.498660    1.685551
H      1.716478   -1.889744    0.534702
