45

C     -1.106822   -2.785466   -0.378735
C     -0.862802   -1.438380   -0.456163
C      0.467653   -0.985586   -0.345499
C      1.497809   -1.879411   -0.163605
C      2.969368   -1.669966   -0.014200
C      3.208776   -0.740018    1.187240
C      2.957620    0.618598    0.675130
C      1.852136    1.062891    0.002349
C      0.587661    0.488710   -0.449970
C     -0.494966    1.039571    0.482968
N     -1.776545    0.716414    0.034116
C     -2.745937    1.716068   -0.039472
C     -4.175215    1.263866   -0.029715
C     -4.403656   -0.091162   -0.576466
C     -3.299426   -1.090832   -0.303028
C     -1.980210   -0.494490   -0.652616
C      1.853960    2.411503   -0.387123
C      2.898638    3.241188   -0.112909
C      3.983487    2.736316    0.567389
C      4.030511    1.422847    0.970670
C      1.248429   -3.233115   -0.086398
C     -0.053941   -3.676000   -0.194732
H     -2.087214   -3.235710   -0.450546
H      3.397987   -1.211912   -0.920070
H      3.493052   -2.606174    0.236647
H      2.453601   -0.974737    1.954639
H      4.233297   -0.871132    1.550300
H      0.370370    0.813429   -1.495210
H     -0.352039    2.145935    0.469192
H     -0.228402    0.694994    1.501509
H     -2.557570    2.365298   -0.923317
H     -2.627668    2.407624    0.846811
H     -4.608025    1.317773    0.991780
H     -4.764807    1.996236   -0.643653
H     -5.333054   -0.538399   -0.116595
H     -4.614855   -0.060711   -1.676559
H     -3.566999   -1.968465   -0.961661
H     -3.364774   -1.451857    0.734087
H     -2.005597   -0.270257   -1.759895
H      1.005306    2.829656   -0.926032
H      2.941951    4.286146   -0.394054
H      4.850934    3.357947    0.814620
H      4.906313    1.028036    1.516176
H      2.055191   -3.965668    0.058433
H     -0.253525   -4.721596   -0.135834
