32

C     -2.171519   -0.849783   -0.089005
C     -1.170765    0.057213   -0.708811
C     -1.559030    1.509321   -0.533931
C      0.265184   -0.218579   -0.391186
C      0.616193   -1.609362   -0.860510
C      2.020121   -1.994603   -0.615274
C      2.959827   -1.254857   -0.083449
C      0.556081   -0.074594    1.066683
O      0.551325   -1.049930    1.839626
N      0.850044    1.202339    1.609257
C      1.255091    2.253147    0.740185
N      1.358195    2.013139   -0.640331
C      1.067318    0.748787   -1.182061
O      1.466079    0.416252   -2.313097
O      1.510541    3.387086    1.268607
C     -2.384303   -0.673111    1.382315
H     -3.164597   -0.592494   -0.572631
H     -2.009877   -1.900084   -0.367774
H     -1.258553   -0.115350   -1.826518
H     -0.954334    2.175096   -1.177160
H     -1.604010    1.823032    0.521341
H     -2.621537    1.580927   -0.908470
H      0.414397   -1.758941   -1.936412
H     -0.047238   -2.367704   -0.344602
H      2.294820   -3.023101   -0.918456
H      2.838755   -0.226757    0.261582
H      3.964007   -1.694011    0.032204
H      0.779013    1.407568    2.650290
H      1.658911    2.808687   -1.249238
H     -2.122412   -1.642861    1.880099
H     -1.884399    0.202331    1.815202
H     -3.473327   -0.538801    1.651525
