65

C     -0.938285    0.760219   -0.197630
C     -2.276281    0.120643   -0.446618
O     -2.771118   -0.579349    0.552578
C     -2.647981   -1.634906    1.296765
O     -1.694837   -2.378044    1.005771
C     -3.533897   -2.031927    2.453463
C     -3.075059   -3.314396    3.067124
C     -2.120451   -0.460517   -1.800492
C     -0.703150   -0.267787   -2.265332
C     -0.010810   -0.117513   -0.945068
C      1.419901    0.106708   -0.885713
C      1.734618    0.078137    0.630800
F      1.197790   -1.181503    0.995559
C      3.221821   -0.051319    0.821729
C      3.887803   -0.159761   -0.478098
C      4.669143   -1.138817   -0.793174
C      4.976777   -2.258901    0.104725
O      5.729852   -3.188941   -0.211570
C      4.326481   -2.190860    1.397911
C      3.542442   -1.184887    1.685433
C      3.622308    0.867903   -1.556846
F      4.130665    0.499964   -2.770473
C      2.123800    1.124962   -1.653140
C      3.750557    1.156357    1.603164
C      0.977698    1.046171    1.405478
O      1.250413    2.362027    1.393709
C     -0.529481    0.793590    1.250696
C     -2.639433   -1.857027   -1.978975
C     -3.269855    1.292612   -0.593428
S     -3.389756    2.245512   -2.069385
C     -4.674602    3.498615   -1.819238
O     -3.966553    1.501637    0.377782
C     -0.971619    2.178720   -0.754724
H     -3.561864   -1.228761    3.212808
H     -4.555950   -2.117681    2.031455
H     -2.869987   -3.218800    4.158262
H     -2.190481   -3.734219    2.534242
H     -3.889016   -4.063516    2.957248
H     -2.736730    0.154638   -2.488883
H     -0.327125   -1.163838   -2.833858
H     -0.519844    0.601383   -2.889271
H     -0.116416   -1.141086   -0.466298
H      1.922666   -0.873862   -1.211031
H      5.172144   -1.211612   -1.771556
H      4.471743   -2.968496    2.158400
H      3.056996   -1.196310    2.724094
H      4.135302    1.779506   -1.228087
H      1.849641    0.948018   -2.730211
H      1.946645    2.175959   -1.484409
H      4.073046    1.987355    1.004494
H      3.029651    1.356864    2.400972
H      4.684736    0.845927    2.174888
H      1.119428    0.733039    2.502231
H      1.899261    2.758336    0.827063
H     -0.831223   -0.069805    1.801765
H     -1.037644    1.689206    1.697116
H     -3.424367   -2.098284   -1.230446
H     -3.153580   -2.010602   -2.961013
H     -1.828732   -2.623678   -1.992657
H     -5.219245    3.727729   -2.754310
H     -5.394117    3.160121   -1.019090
H     -4.180895    4.398094   -1.395747
H     -0.073920    2.779399   -0.420966
H     -1.816252    2.725166   -0.305211
H     -0.982774    2.262487   -1.824777
