40

C     -1.253809    2.477506    1.585376
C     -1.989643    3.628297    1.604764
S     -3.237596    3.307042    0.487806
C     -2.799138    1.726732    0.024083
C     -1.672410    1.487472    0.764862
N     -0.950872    0.222653    0.677750
C     -1.461216   -1.077659    0.402154
C     -2.560311   -1.358133   -0.423267
C     -3.428998   -0.416503   -1.156099
C     -3.517588    0.884115   -0.953943
C     -2.937038   -2.667542   -0.600244
C     -2.226154   -3.661942    0.037337
C     -1.145300   -3.384331    0.850134
C     -0.754680   -2.087802    1.038704
C      0.475623    0.264352    0.905170
C      1.117138    1.316850   -0.045966
C      2.582475    1.293748    0.268129
N      3.067799   -0.063943   -0.018716
C      4.478384   -0.164697    0.355977
C      2.915998   -0.358221   -1.439407
H     -0.351956    2.411576    2.238479
H     -1.793873    4.532204    2.210785
H     -4.024069   -0.891281   -1.914084
H     -4.195462    1.441214   -1.564403
H     -3.789145   -2.901205   -1.239781
H     -2.513413   -4.690557   -0.096029
H     -0.578383   -4.145344    1.356522
H      0.068517   -1.760820    1.666010
H      0.782075    0.468252    1.926201
H      0.969491   -0.646399    0.449793
H      1.001253    0.980803   -1.104335
H      0.632168    2.273166    0.042559
H      2.738577    1.472432    1.334343
H      3.146677    2.020939   -0.375252
H      4.529050   -0.450202    1.426842
H      4.896508   -0.991005   -0.246677
H      4.955450    0.789726    0.117421
H      3.193909    0.562104   -1.989069
H      3.710611   -1.113677   -1.673829
H      1.919349   -0.729922   -1.707725
