32

C     -1.038536   -1.210803   -1.284716
C     -0.805931   -0.629473   -0.066068
S     -2.087483   -1.213175    0.890001
C     -2.882831   -2.175053   -0.272023
C     -2.111906   -2.009578   -1.391274
C      0.338264    0.284920    0.307232
C      0.605464    1.236799   -0.752292
C     -0.428405    2.199316   -1.179997
C     -0.821136    2.967738    0.091145
C     -1.325533    1.912670    1.064265
C     -0.157887    1.069902    1.520654
O      1.678117    1.272329   -1.317406
N      1.402921   -0.529219    0.724649
C      1.994494   -1.437056   -0.154964
C      3.118604   -2.165145    0.602505
H     -0.347276   -1.008410   -2.138575
H     -3.794707   -2.792666   -0.178202
H     -2.400139   -2.535095   -2.330304
H     -0.049830    2.926738   -1.937049
H     -1.317427    1.709005   -1.605763
H     -1.685832    3.603152   -0.191961
H      0.038996    3.528090    0.463093
H     -1.830941    2.376363    1.941458
H     -2.007713    1.276220    0.466816
H      0.686835    1.710839    1.876972
H     -0.445384    0.352332    2.302935
H      1.667958   -0.520362    1.708495
H      1.270232   -2.228420   -0.501737
H      2.463122   -1.047915   -1.072377
H      3.901401   -1.408402    0.880820
H      2.770603   -2.583691    1.556934
H      3.601885   -2.931953   -0.023268
