57

C      5.602936    2.879490    0.826637
S      4.232833    2.255610   -0.175754
C      3.559745    0.789587    0.577048
O      4.069910    0.404232    1.613436
C      2.422647    0.110753   -0.081697
O      2.095566    0.810303   -1.237051
C      2.768575   -1.291208   -0.517100
C      3.500096   -1.292291   -1.849223
C      1.405312   -1.899281   -0.743493
C      0.462968   -1.166015    0.187843
C     -0.800206   -0.785246   -0.530680
C     -1.601615   -2.058424   -0.695028
C     -3.002148   -1.813696   -1.208844
C     -3.604381   -0.814567   -0.268526
C     -4.673885   -1.176138    0.396955
C     -5.304101   -0.248385    1.326735
O     -6.327228   -0.568736    1.975078
C     -4.679097    1.052979    1.451944
C     -3.608060    1.384565    0.771458
C     -2.949638    0.474392   -0.171659
C     -3.052130    1.138853   -1.536028
C     -1.519435    0.272164    0.254313
F     -1.587192   -0.208092    1.568159
C     -0.665834    1.479496    0.278670
O     -0.239592    1.985972   -0.912324
C      0.523553    1.165204    1.159333
C      1.246516   -0.098570    0.819032
C      1.793432   -0.631746    2.151215
H      6.207279    2.023963    1.243919
H      5.162174    3.399031    1.706452
H      6.282171    3.539612    0.241171
H      2.904201    0.889085   -1.779928
H      3.304355   -1.887500    0.239758
H      4.379311   -0.648510   -1.859041
H      3.844045   -2.332651   -2.012766
H      2.764409   -1.075610   -2.645007
H      1.398337   -2.990050   -0.600051
H      1.055522   -1.689562   -1.793163
H      0.155326   -1.936023    0.956685
H     -0.514463   -0.474062   -1.553840
H     -1.035162   -2.762768   -1.300694
H     -1.707687   -2.507932    0.320396
H     -3.043697   -1.487749   -2.247228
H     -3.547283   -2.767848   -1.098241
H     -5.100468   -2.174292    0.259879
H     -5.092183    1.803091    2.128340
H     -3.195828    2.416566    0.927362
H     -2.791891    2.202983   -1.525929
H     -2.581375    0.540816   -2.341180
H     -4.156884    1.111095   -1.781364
H     -1.213464    2.301146    0.802623
H     -0.500388    1.548707   -1.729202
H      0.117479    1.080198    2.187948
H      1.187953    2.054230    1.119395
H      2.084603    0.199557    2.826345
H      0.968733   -1.168788    2.707369
H      2.595330   -1.357940    2.036448
