38

C     -2.379771    0.554607    1.300344
C     -3.710704    0.890747    1.473723
C     -4.683567    0.582518    0.540877
C     -4.286296   -0.089227   -0.603873
C     -2.967695   -0.447852   -0.824608
C     -2.028024   -0.114392    0.144781
B     -0.529365   -0.486533   -0.038212
O      0.291699    0.369112   -0.905275
C      1.380903   -0.354227   -1.417062
C      2.136933   -1.000653   -0.287508
C      2.642459    0.045425    0.644913
C      3.570586    1.046972    0.045458
C      4.049498    2.072507    1.050440
C      3.213718   -1.894500   -0.831591
C      1.188642   -1.914786    0.509829
O      0.150269   -1.166488    1.058854
C     -6.116277    0.955832    0.749406
H     -1.650507    0.817058    2.059631
H     -4.035900    1.416634    2.364885
H     -5.072546   -0.320756   -1.324146
H     -2.674389   -0.970384   -1.720637
H      1.013814   -1.152153   -2.108800
H      2.031704    0.368013   -1.934296
H      1.779986    0.601763    1.088832
H      3.133202   -0.443297    1.537670
H      3.018375    1.647296   -0.732347
H      4.398966    0.513933   -0.457610
H      3.345077    2.225554    1.870859
H      4.277555    3.051060    0.579651
H      5.033572    1.677428    1.437811
H      3.798123   -1.439666   -1.647850
H      2.693942   -2.783768   -1.291624
H      3.830077   -2.306243   -0.013317
H      1.819850   -2.405614    1.268404
H      0.804197   -2.653688   -0.217365
H     -6.264907    2.026983    0.566640
H     -6.449509    0.732566    1.783193
H     -6.753693    0.348217    0.078514
