40

C     -0.808287   -0.278659    0.044655
O      0.363839    0.034687    0.633806
C      1.622122    0.394684    0.379851
C      2.123399    0.521069   -0.901607
C      3.456530    0.904452   -1.035819
C      4.268070    1.153861    0.048033
C      3.744475    1.020039    1.316792
C      2.449849    0.648981    1.507536
C      1.317895    0.251737   -2.123960
C     -1.003975   -1.790015    0.200954
C     -1.422866   -2.556186   -0.852149
C     -1.591761   -3.930051   -0.678315
C     -1.340883   -4.518314    0.540827
C     -0.918830   -3.739893    1.598262
C     -0.752844   -2.371302    1.417086
C     -2.030643    0.335506    0.725073
C     -1.977106    1.842108    0.744678
N     -1.928825    2.410467   -0.567129
C     -1.877671    3.839778   -0.578630
H     -0.941104   -0.081310   -1.022650
H      3.861460    1.008207   -2.057473
H      5.308046    1.452371   -0.096294
H      4.427909    1.228564    2.143171
H      2.032038    0.542116    2.512803
H      0.598741    1.025485   -2.379938
H      2.058371    0.262702   -2.989127
H      0.932517   -0.799306   -2.165524
H     -1.611980   -2.064671   -1.798215
H     -1.921636   -4.499119   -1.526946
H     -1.470784   -5.599242    0.688124
H     -0.708206   -4.163756    2.582517
H     -0.423414   -1.730471    2.223814
H     -2.925148    0.056827    0.113362
H     -2.198049   -0.057666    1.729512
H     -1.068141    2.189248    1.289131
H     -2.900713    2.195640    1.236972
H     -1.179493    2.052022   -1.178322
H     -1.436256    4.240010   -1.513595
H     -1.247251    4.263295    0.254844
H     -2.879394    4.306103   -0.466112
