19

C     -0.956434    1.416082   -0.537279
C     -1.000032    0.069117    0.142886
C      0.117479   -0.738143   -0.413762
N      1.293919   -0.337600    0.280067
C      0.810400    0.267832    1.491064
O     -0.595008    0.216778    1.492692
O      1.567696    0.741030    2.356138
C      2.641592   -0.522467   -0.175773
O     -0.014066   -1.584577   -1.311892
C     -2.299387   -0.636375   -0.019886
H     -1.746281    2.102946   -0.205755
H      0.030646    1.871697   -0.309529
H     -0.981160    1.294993   -1.654219
H      2.795489   -0.184574   -1.231395
H      3.346881    0.090629    0.435819
H      2.928635   -1.582040   -0.130885
H     -2.132679   -1.726216    0.009239
H     -3.045702   -0.382248    0.765779
H     -2.761989   -0.376864   -0.983309
