27

C     -1.692382   -0.566794    0.781091
C     -0.504536   -0.547407   -0.217371
C      0.772967   -0.789113    0.501898
C      1.967409   -0.805811   -0.362399
C      2.318217    0.392669   -1.139182
C      0.921546    0.050176    1.749492
C     -0.605929    0.656615   -1.032686
N     -0.598341    1.988773   -0.512286
O     -0.709803    0.558829   -2.281009
C     -2.925432   -0.313138   -0.052561
H     -1.679690   -1.592412    1.210175
H     -1.564594    0.222718    1.539695
H     -0.710407   -1.435838   -0.863311
H      0.679250   -1.848465    0.904912
H      2.887481   -1.149757    0.208495
H      1.831816   -1.661562   -1.098072
H      1.983770    0.315174   -2.212506
H      2.080203    1.367196   -0.709003
H      3.451845    0.411956   -1.260010
H      0.875784    1.122164    1.568429
H      1.927158   -0.201603    2.180170
H      0.178628   -0.313967    2.477923
H     -1.137035    2.266493    0.331825
H     -0.036726    2.736245   -0.979155
H     -3.690144   -1.064375    0.269278
H     -2.747708   -0.524194   -1.131322
H     -3.273349    0.725428    0.127489
