48

C     -1.401806   -1.525579   -1.634049
C     -2.142430   -2.297867   -0.554442
C     -2.341314   -1.201534    0.472042
C     -0.901010   -0.649261    0.556737
C     -0.599576   -0.431942   -0.880031
O     -1.142712    0.835146   -1.169711
C     -2.311923    1.055503   -0.455551
O     -2.023353    1.482049    0.865056
C     -1.034780    0.629604    1.362276
O     -1.295376    0.253175    2.677715
C     -0.324584    0.768787    3.561001
C     -3.177646   -0.154841   -0.262119
C     -4.247696    0.264256    0.755642
C      0.782091   -0.597793   -1.368538
N      1.863825    0.141589   -0.915454
C      2.390908   -0.144841    0.311953
C      3.714390    0.510472    0.650727
C      4.444461    0.745428   -0.629200
C      3.618172    1.798985   -1.382706
C      2.348235    1.099787   -1.793074
O     -0.535751   -2.459529   -2.220742
H     -2.049391   -1.072081   -2.385384
H     -3.168549   -2.482520   -0.984567
H     -1.632292   -3.183254   -0.195962
H     -2.741643   -1.516143    1.420578
H     -0.249133   -1.322526    1.102164
H     -2.863633    1.889547   -0.912956
H     -0.128305    1.255502    1.380467
H      0.693081    0.386953    3.299161
H     -0.567218    0.606461    4.606780
H     -0.290672    1.882292    3.372432
H     -3.675082   -0.528507   -1.151529
H     -4.984918    0.941489    0.271834
H     -4.768774   -0.579807    1.202916
H     -3.760043    0.868962    1.555259
H      0.975527   -1.744265   -1.265548
H      0.687627   -0.560561   -2.521922
H      2.606535   -1.262695    0.424789
H      1.739473    0.073975    1.158918
H      4.221243   -0.109281    1.394654
H      3.508723    1.488056    1.122380
H      5.499069    1.037344   -0.527461
H      4.347781   -0.185175   -1.255182
H      3.476348    2.622590   -0.669852
H      4.172054    2.086501   -2.274377
H      2.470725    0.743036   -2.837002
H      1.582647    1.930315   -1.883584
H     -0.783306   -3.387802   -1.982115
