32

C     -1.250821   -1.862310    0.165643
C     -1.039631   -0.398722   -0.091942
C     -2.077998    0.471937    0.519916
N     -2.319522    1.789879    0.004047
C     -1.958045    2.070444   -1.329024
O     -2.161328    3.225555   -1.808793
N     -1.369642    1.068783   -2.133301
C     -1.154439   -0.201364   -1.577829
O     -1.055291   -1.189215   -2.325986
O     -2.796620    0.137186    1.495836
C      0.309045    0.070611    0.369402
C      1.209410    0.518301   -0.507440
C      2.556972    1.000862   -0.175675
C      3.650103    0.203217   -0.855929
C      0.662813    0.040657    1.806766
C     -1.249384   -2.308503    1.577501
H     -2.237205   -2.204419   -0.282541
H     -0.495552   -2.484256   -0.374263
H     -2.757495    2.493250    0.645928
H     -1.110473    1.306582   -3.125821
H      0.864452    0.504098   -1.552935
H      2.751547    1.074524    0.895675
H      2.641269    2.042826   -0.589725
H      4.590488    0.347810   -0.272678
H      3.864536    0.605968   -1.875562
H      3.404596   -0.858339   -0.956560
H     -0.214574   -0.151995    2.460169
H      1.121929    1.032778    2.041863
H      1.421126   -0.720267    2.052634
H     -0.211970   -2.465107    1.968237
H     -1.669399   -3.369722    1.557833
H     -1.918896   -1.791050    2.274554
