32

C     -1.520703    0.942520   -0.240043
C     -0.351148    0.483377   -1.022099
C      0.785481   -0.119706   -0.245607
C      1.326143    0.810328    0.758318
N      2.173974    0.317646    1.779297
C      2.281787   -1.064985    2.098041
O      3.036889   -1.484462    3.006335
N      1.463630   -1.924453    1.301701
C      0.610552   -1.447632    0.273175
O     -0.278880   -2.285191   -0.119921
O      1.038383    2.048806    0.715607
C      1.908369   -0.229811   -1.279341
C      2.676829    0.803592   -1.530532
C     -0.699612   -0.410678   -2.178123
C     -2.232177   -0.088913    0.587721
C     -3.397268    0.625464    1.262459
H     -2.326080    1.348827   -0.926745
H     -1.285209    1.850051    0.392155
H      0.094194    1.409509   -1.501067
H      2.746376    1.034277    2.318426
H      1.512172   -2.970705    1.507165
H      2.007169   -1.177902   -1.756823
H      3.457225    0.679632   -2.268499
H      2.567688    1.749500   -1.045219
H     -1.393666   -1.216951   -1.862896
H     -1.146150    0.184880   -3.029053
H      0.214296   -0.854240   -2.618818
H     -1.587703   -0.513527    1.389460
H     -2.652028   -0.924187    0.017492
H     -4.101271   -0.107256    1.665202
H     -3.892543    1.256954    0.479987
H     -3.036719    1.275234    2.072244
