49

C      3.181959    0.385703    0.403397
C      4.482360    0.036322    0.102290
O      5.290333    0.956060   -0.524770
C      6.616141    0.605939   -0.833739
C      4.948412   -1.206269    0.426176
C      4.076593   -2.094342    1.062056
C      2.777967   -1.734720    1.358516
N      1.969516   -2.613729    1.975440
C      0.705299   -2.313414    2.289144
C      0.223103   -1.044227    1.959715
C      1.004497   -0.103538    1.327421
C      2.300208   -0.463758    1.027111
C      0.477220    1.231306    0.970026
C      0.103105    1.399143   -0.461628
C     -0.982025    0.469401   -0.945921
C     -2.275702    0.660586   -0.194255
C     -3.288525   -0.320939   -0.758168
C     -4.545955   -0.274990    0.085296
N     -5.035013    1.063965    0.161165
C     -4.342496    2.017569   -0.643295
C     -2.862124    2.038546   -0.428575
C     -2.719796   -1.674023   -0.846217
C     -2.591811   -2.257652   -2.019168
H      2.852186    1.359965    0.144592
H      7.094557    0.305333    0.142202
H      7.160089    1.450135   -1.312017
H      6.690925   -0.280225   -1.496404
H      5.972832   -1.497646    0.194267
H      4.461419   -3.080607    1.313637
H      0.081890   -3.045206    2.785341
H     -0.798545   -0.862654    2.239592
H     -0.439936    1.479370    1.578119
H      1.191145    2.047083    1.221870
H      0.903961    1.363508   -1.193519
H     -0.332156    2.434966   -0.544813
H     -0.685947   -0.578840   -0.856523
H     -1.173501    0.731572   -2.006860
H     -2.127578    0.570360    0.888896
H     -3.563952    0.057236   -1.755203
H     -5.284268   -0.961889   -0.421739
H     -4.329420   -0.653650    1.099940
H     -5.279567    1.394865    1.110845
H     -4.628880    1.891281   -1.714317
H     -4.736116    3.031260   -0.358668
H     -2.641817    2.722831    0.416128
H     -2.406050    2.513150   -1.344729
H     -2.420731   -2.149500    0.091590
H     -2.901083   -1.752031   -2.921280
H     -2.172721   -3.253605   -2.077457
