38

C     -3.572391    2.315751    1.849784
N     -2.574998    1.450481    1.628537
N     -2.959207    0.586517    0.705421
C     -2.339505   -0.480373    0.124384
C     -3.030180   -1.188870   -0.822322
C     -4.330517   -0.850091   -1.199140
N     -4.896798    0.192743   -0.610709
C     -4.211285    0.888643    0.322607
C     -4.634354    1.991823    1.036710
C     -5.908886    2.643284    0.941136
N     -6.961914    3.159656    0.869386
C     -0.990051   -0.828686    0.529887
C      0.135856   -0.360872   -0.095117
C      1.434551   -0.675398    0.277043
C      1.583463   -1.524508    1.360648
C      0.488245   -2.023157    2.024166
C     -0.765864   -1.679085    1.613280
N      2.544602   -0.147781   -0.428351
C      2.559675    1.210020   -0.794264
C      3.692216    1.789457   -1.539711
O      1.579055    1.934631   -0.473320
C      3.651944   -0.994681   -0.771767
C      4.711229   -1.005374    0.302565
H     -3.565910    3.148200    2.555061
H     -2.573881   -2.040541   -1.306778
H     -4.875554   -1.411854   -1.948051
H     -0.024913    0.308660   -0.949179
H      2.610892   -1.777071    1.661232
H      0.663920   -2.686217    2.870422
H     -1.648133   -2.053809    2.114368
H      4.590049    1.777124   -0.871408
H      3.949260    1.245520   -2.474372
H      3.423247    2.843946   -1.795215
H      4.099802   -0.622371   -1.705052
H      3.222208   -2.025347   -0.911262
H      4.448214   -0.322673    1.142796
H      4.791527   -2.041512    0.695122
H      5.684383   -0.746183   -0.129942
