37

C      2.408998   -0.538722    0.883302
C      1.985863    0.215457   -0.193202
N      0.660166    0.708142   -0.155003
C     -0.371756   -0.233586   -0.374014
C     -1.721112   -0.169494    0.098043
N     -2.356486   -1.273826   -0.283372
C     -3.714149   -1.656453   -0.012646
N     -1.461144   -2.020313   -0.977015
C     -0.276332   -1.416555   -1.042562
C      0.953987   -1.877746   -1.744247
N     -2.305262    0.911951    0.813296
C     -1.618940    2.031155    1.372423
O     -2.110287    2.413016    2.465404
C     -0.458806    2.835411    0.938100
C      0.506832    2.101624    0.133748
O      1.378874    2.813404   -0.417300
C     -3.733916    0.859655    0.955202
C      2.876457    0.471357   -1.195310
C      4.156363   -0.012470   -1.126529
C      4.597598   -0.771530   -0.053404
C      3.694653   -1.034215    0.968960
H      1.724581   -0.769440    1.714679
H     -3.670290   -2.810242   -0.069219
H     -4.068306   -1.548657    1.008824
H     -4.441940   -1.486851   -0.828173
H      1.212744   -1.230148   -2.625301
H      0.605253   -2.833723   -2.273618
H      1.766286   -2.211140   -1.128756
H      0.046205    3.259710    1.839199
H     -0.875626    3.718780    0.377469
H     -4.107133    0.502410    1.928554
H     -4.309659    0.622449    0.064117
H     -4.046150    1.972677    1.064454
H      2.580737    1.056293   -2.043666
H      4.898569    0.178048   -1.918218
H      5.596226   -1.146685   -0.005498
H      3.996901   -1.629744    1.841282
