20

C      0.386960    1.947228    0.171617
C      1.755847    1.741206    0.107230
Cl     2.900314    3.085449    0.206529
C      2.187292    0.441963   -0.031920
C      1.290666   -0.606844   -0.104143
C     -0.065449   -0.385361   -0.037898
C     -0.539588    0.915930    0.103667
N     -1.861315    1.137777    0.178385
C     -2.769555    0.143522    0.122302
O     -4.004609    0.332789    0.190845
C     -2.296149   -1.144944   -0.018395
N     -0.971186   -1.385785   -0.095121
O     -3.106690   -2.117438   -0.077042
N      1.809148   -1.917024   -0.257476
O      2.312908   -2.486391    0.746446
O      1.778763   -2.599355   -1.455809
Cl     3.923436    0.172136   -0.115676
H      0.036992    2.963882    0.280629
H     -2.168875    2.126294    0.286541
H     -0.598907   -2.365031   -0.200711
