34

N     -4.448534   -1.013976   -2.138919
N     -3.324547   -0.618847   -2.448182
C     -2.658399    0.445706   -1.726254
C     -2.041630   -0.098588   -0.477125
O     -2.120903   -1.310391   -0.151342
N     -1.331691    0.774137    0.391860
C     -0.725495    0.276470    1.605439
C      0.735977    0.578627    1.682783
O      0.910804    1.978817    1.641300
C      1.515007   -0.073403    0.589729
C      1.515820    0.415828   -0.699355
C      2.233342   -0.180331   -1.717087
C      2.991469   -1.308599   -1.482226
N      3.733732   -1.925870   -2.533633
O      4.481820   -3.046563   -2.282533
O      3.732607   -1.482565   -3.695096
C      2.995153   -1.802636   -0.196725
C      2.275565   -1.201818    0.816195
C     -1.404291    0.977453    2.762512
O     -1.190275    2.362078    2.609696
N     -5.671994   -1.048056   -1.951013
H     -3.398414    1.214958   -1.424864
H     -1.866832    0.899172   -2.375648
H     -1.258942    1.781854    0.132497
H     -0.905908   -0.802647    1.709873
H      1.106285    0.272785    2.682640
H      0.586445    2.354341    0.786252
H      0.932310    1.301875   -0.926520
H      2.225637    0.217453   -2.735101
H      3.597715   -2.696208   -0.018380
H      2.290746   -1.609422    1.833008
H     -2.498258    0.836644    2.730871
H     -0.992050    0.653291    3.739618
H     -2.022272    2.878431    2.666299
