75

C      1.374990   -2.268418   -0.198333
C      0.908083   -1.006674   -0.784318
C      0.772663   -0.113699    0.427784
C      2.143772    0.210427    0.904864
N      2.916325    0.914835   -0.085582
C      3.084295    2.289317    0.050946
C      3.954785    2.659788    1.245850
C      5.359754    2.154019    1.297291
C      5.096282    3.587861    0.942163
C      2.985142    0.284722   -1.335790
C      1.805447   -0.470838   -1.814794
C      2.963373   -1.041116    1.220215
C      2.404959   -2.283520    0.679025
C      2.798670   -3.532911    1.093987
C      2.140660   -4.682699    0.611763
C      1.078683   -4.543745   -0.293143
C      0.665486   -3.291450   -0.723433
O     -0.317754   -2.742742   -1.567228
C     -0.453980   -1.353012   -1.336061
C     -1.543611   -0.921690   -0.375980
O     -2.697283   -1.455826   -0.836273
C     -2.861938   -2.784793   -0.958850
C     -1.476293    0.578595   -0.401637
C     -0.081190    1.047486    0.019954
C     -2.533922    1.434695    0.125798
C     -3.912808    1.451677   -0.394419
C     -4.758703    0.227541   -0.307454
C     -4.744183    2.583481    0.250052
C     -3.934624    1.820089   -1.896109
C     -2.047138    2.914205    0.160454
O     -2.563132    1.158148    1.542039
C     -1.199645   -1.478114    0.990170
C      0.014629   -0.818407    1.531484
O      0.411580   -5.649748   -0.783341
H      2.085973    0.841567    1.807513
H      3.573763    2.674895   -0.886934
H      2.173483    2.912304    0.150823
H      3.383195    2.813670    2.180794
H      5.623804    1.419986    0.515803
H      5.722424    1.898604    2.314233
H      5.412419    4.312634    1.740676
H      5.329425    3.853966   -0.118203
H      3.864823   -0.429939   -1.298233
H      3.320953    1.043041   -2.091150
H      2.192526   -1.367622   -2.403503
H      1.261664    0.101966   -2.624133
H      3.986206   -0.932320    0.810641
H      3.131564   -1.107230    2.336008
H      3.603858   -3.657213    1.783995
H      2.440054   -5.676948    0.927754
H     -0.593434   -0.862445   -2.329663
H     -2.705508   -3.309770    0.009479
H     -2.448717   -3.307177   -1.815610
H     -4.002401   -2.929213   -1.104782
H     -1.484223    0.784655   -1.545473
H     -0.116352    1.707964    0.914213
H      0.355693    1.672452   -0.779084
H     -4.931195   -0.304635   -1.265750
H     -5.838268    0.605979   -0.101362
H     -4.597902   -0.409876    0.577480
H     -4.816720    3.472605   -0.404969
H     -4.450471    2.776131    1.286140
H     -5.784470    2.201855    0.304497
H     -3.487979    2.794378   -2.087540
H     -5.010046    1.879239   -2.164227
H     -3.516973    0.983753   -2.493709
H     -2.947376    3.538515    0.183103
H     -1.489019    3.141352    1.074970
H     -1.514161    3.146864   -0.779183
H     -3.470945    0.944483    1.828096
H     -2.061951   -1.416959    1.689052
H     -1.005013   -2.558008    0.869325
H     -0.281763   -0.037590    2.259463
H      0.629239   -1.531593    2.117163
H      0.710451   -6.561800   -0.475863
