22

N     -2.541016    0.478904    0.892180
C     -2.548943   -0.490336   -0.184144
C     -1.490309   -0.189824   -1.222324
C     -0.131329   -0.195903   -0.669275
C      0.645146   -1.345226   -0.628778
C      1.912377   -1.355271   -0.114136
C      2.439123   -0.179240    0.383529
O      3.717852   -0.172689    0.906853
C      1.670460    0.972689    0.346845
O      2.259211    2.123242    0.863683
C      0.409682    0.954568   -0.171936
H     -3.518738    0.514451    1.300392
H     -1.947282    0.095540    1.674084
H     -2.398590   -1.518905    0.225886
H     -3.532499   -0.507756   -0.697727
H     -1.563727   -0.958084   -2.007666
H     -1.714629    0.780981   -1.693342
H      0.226341   -2.257727   -1.019037
H      2.497543   -2.275122   -0.096527
H      4.089730    0.697154    1.267709
H      1.706443    2.971263    0.842029
H     -0.186846    1.857292   -0.198296
