68

C     -5.390145   -4.425843    1.957704
O     -4.600787   -3.304467    1.623621
C     -5.196829   -2.052325    1.673321
C     -6.517925   -1.880591    2.034715
C     -7.112837   -0.621432    2.083375
C     -6.325385    0.452996    1.754377
C     -5.002015    0.276474    1.392808
C     -4.147101    1.428899    1.037030
O     -4.697939    2.553771    1.086041
C     -2.758497    1.295428    0.652699
C     -1.950241    2.385894    0.315986
O     -2.498653    3.642858    0.350926
C     -0.644875    2.198704   -0.038997
C      0.219008    3.323022   -0.421287
C      0.746267    2.968822   -1.800199
O     -0.336338    2.815410   -2.670166
C      1.552501    1.705737   -1.734120
C      1.362502    0.889373   -0.476231
O      1.804342   -0.375829   -0.507430
C      2.820425   -0.704303    0.360663
C      2.694740   -1.948146    1.144601
C      4.100661   -2.515354    1.398110
N      4.934294   -1.373462    1.732662
C      4.603016   -3.064612    0.081214
O      5.994977   -2.955218    0.083142
C      4.001786   -2.160505   -1.003408
C      4.960804   -2.189746   -2.159680
O      3.955610   -0.875028   -0.483300
C     -0.068659    0.962012   -0.083016
C     -0.849734   -0.153708    0.247153
O     -0.258907   -1.366851    0.193039
C     -2.179200    0.027167    0.609429
C     -3.018115   -1.119640    0.960068
O     -2.564500   -2.278169    0.942134
C     -4.422692   -0.960719    1.346489
C      1.595841    4.129639   -2.212884
O      2.576929    4.408487   -1.571730
C      1.224843    4.916055   -3.394301
O      2.133616    5.947385   -3.614196
H     -5.826017   -4.320290    2.976240
H     -4.726456   -5.311628    1.901813
H     -6.260391   -4.524435    1.267878
H     -7.076118   -2.768275    2.280161
H     -8.151640   -0.542916    2.372995
H     -6.731555    1.452592    1.774060
H     -3.313924    4.074551    0.542220
H     -0.319693    4.284063   -0.417848
H      1.100164    3.321874    0.253511
H      0.038908    2.781561   -3.591779
H      2.629228    2.022294   -1.726842
H      1.320023    1.118800   -2.649093
H      1.932393    1.409527    0.362704
H      3.145414    0.149368    1.017348
H      2.103403   -2.710761    0.592168
H      2.290522   -1.772052    2.177292
H      4.064548   -3.256832    2.200787
H      5.875225   -1.424220    1.280189
H      4.975893   -1.212251    2.756386
H      4.324070   -4.110982   -0.052978
H      6.316544   -3.593560    0.767971
H      3.035057   -2.549787   -1.330054
H      5.824051   -1.513256   -1.926965
H      4.500363   -1.960953   -3.125716
H      5.400163   -3.208750   -2.217060
H     -0.513350   -2.267559    0.351653
H      0.221459    5.380976   -3.321291
H      1.203995    4.304996   -4.334297
H      1.876935    6.745718   -3.071818
