59

O     -0.001107    0.363137   -0.000000
C      1.914314   -2.993096    0.228328
C      2.242906   -1.572982    0.276527
C      1.258557   -0.576594   -0.209316
C     -0.176261   -0.926182   -0.145771
O     -0.432293   -1.793454   -1.252122
C     -1.116277    0.224512   -0.409723
C     -2.508086   -0.315967   -0.144059
N     -2.885142   -1.272870   -1.131989
C     -3.560740   -2.384408   -0.550561
C     -3.528774   -0.783041   -2.300822
C     -3.528730    0.719330    0.120237
O     -4.664847    0.735610   -0.381628
C     -3.154576    1.783917    1.039743
C     -4.040437    2.607086    1.617008
N     -5.413613    2.445259    1.327387
O     -3.532564    3.589470    2.482422
C     -1.725018    1.920655    1.302756
O     -1.297687    2.360368    2.387084
C     -0.786612    1.512019    0.220317
O     -0.957229    2.545725   -0.755915
C      0.597422    1.689005    0.688005
O      0.826940    2.703334    1.432544
C      1.618397    0.757014    0.314041
C      2.895302    1.105301    0.497365
O      3.212673    2.383168    0.962809
C      3.974774    0.139379    0.249848
C      5.280776    0.608055    0.154831
O      5.695364    1.840118    0.518781
C      6.216538   -0.298445   -0.361912
C      5.850910   -1.563053   -0.743550
C      4.541911   -2.010190   -0.635535
C      3.614322   -1.157060   -0.135601
H     -0.824985   -0.181947   -0.000000
H      0.826092   -0.181190    0.000000
H      0.975482   -3.269591   -0.339377
H      2.659564   -3.709578   -0.142392
H      1.667967   -3.411409    1.262705
H      2.285833   -1.330307    1.419191
H      1.510653   -0.465320   -1.342350
H     -0.475855   -1.441738    0.762252
H     -0.224028   -1.248269   -2.071626
H     -1.106144    0.369953   -1.540109
H     -2.402368   -0.917074    0.825103
H     -3.372583   -2.464939    0.558787
H     -4.665546   -2.283485   -0.622859
H     -3.280471   -3.353559   -1.013126
H     -4.559938   -1.193238   -2.403608
H     -2.966092   -1.179829   -3.198198
H     -3.536700    0.335153   -2.361854
H     -5.747945    2.644254    0.369279
H     -6.098574    2.143469    2.041555
H     -3.338757    3.259912    3.417629
H     -0.090710    2.790023   -1.160622
H      2.888632    3.246241    0.535027
H      5.358144    2.658178    0.873532
H      7.258022    0.039098   -0.454907
H      6.575538   -2.247101   -1.136757
H      4.253654   -2.992831   -0.938803
