34

C      3.730663   -0.784909   -0.863063
N      2.496515   -0.842274   -0.151134
C      2.015071   -2.065707    0.421158
O      2.674725   -3.090700    0.140330
C      0.834458   -2.254946    1.301316
O      1.117484   -1.670951    2.525308
N     -0.360595   -1.640650    0.780297
C     -0.572214   -0.460541    0.271958
C     -1.920181   -0.186930   -0.163711
C     -2.923669   -1.130196    0.147628
C     -4.194908   -1.027005   -0.320932
C     -4.535727    0.033210   -1.132985
C     -3.605797    0.981580   -1.472613
C     -2.305377    0.843391   -0.973322
C      0.439323    0.560842    0.233262
C     -0.114108    1.806733    0.451491
C      0.702082    2.908996    0.400899
Cl     0.024435    4.525249    0.665809
C      2.058682    2.740396    0.135561
C      2.633411    1.510598   -0.079908
C      1.786132    0.408161   -0.023028
H      4.608448   -0.569219   -0.208101
H      3.934810   -1.778806   -1.305651
H      3.698725   -0.087541   -1.737904
H      0.697861   -3.333835    1.462593
H      0.490252   -2.069380    3.194081
H     -2.653731   -1.961091    0.784910
H     -4.957185   -1.782737   -0.058360
H     -5.551035    0.104746   -1.498591
H     -3.854361    1.832470   -2.116489
H     -1.610293    1.585649   -1.330830
H     -1.150738    1.926117    0.712499
H      2.674575    3.619052    0.100080
H      3.692265    1.350227   -0.292560
