23

C     -1.663456    1.476381    0.386210
C     -1.821368    0.157394   -0.289853
N     -3.190043   -0.324427   -0.273501
C     -0.878020   -0.897010    0.240063
C      0.530899   -0.539244    0.079989
C      1.197933    0.155909    1.063465
C      2.524986    0.463363    0.853399
C      3.181703    0.096343   -0.296412
C      2.525686   -0.599315   -1.287791
C      1.193518   -0.906024   -1.073025
H     -2.565503    2.087935    0.180178
H     -1.519997    1.387742    1.484306
H     -0.807728    2.036419   -0.072824
H     -1.553407    0.307828   -1.376447
H     -3.592380   -0.127427    0.657300
H     -3.177805   -1.357378   -0.414008
H     -1.120442   -1.015229    1.328589
H     -1.072456   -1.872923   -0.231790
H      0.718632    0.467684    1.991140
H      3.119676    1.016469    1.595878
H      4.234839    0.338988   -0.465800
H      3.033671   -0.896386   -2.203731
H      0.701060   -1.457091   -1.875335
