59

C     -6.859952    1.539865   -0.535883
N     -5.417050    1.456893   -0.312346
C     -5.021196    0.135517    0.109062
C     -3.977276    0.200425    1.227964
N     -3.060397    1.208243    0.915096
C     -1.921089    0.976768    0.144397
C     -0.884602    0.105511    0.835794
C      0.352262   -0.106838    0.124568
C      0.918221   -1.238813   -0.264943
C      0.236067   -2.494012    0.015432
C     -1.126727   -2.472810    0.203126
C     -1.830233   -3.659734    0.365464
C     -1.184979   -4.875355    0.336210
C      0.178706   -4.891604    0.141127
C      0.871924   -3.741182   -0.015290
S      2.591942   -3.863621   -0.287282
C      3.178731   -2.266141   -0.754644
C      4.460461   -2.186994   -1.171960
C      5.065919   -0.978631   -1.527527
C      4.265757    0.127581   -1.423581
C      2.936202    0.027422   -0.989243
C      2.371684   -1.182136   -0.646950
S      4.972662    1.666283   -1.858871
O      6.019851    1.430329   -2.914000
O      3.955495    2.606574   -2.455807
N      5.694198    2.354205   -0.447293
C      4.738231    2.602616    0.587159
C      6.803701    1.551957    0.012215
C     -3.615295    2.536083    0.824196
C     -5.123447    2.395673    0.753295
H     -7.170861    1.100733   -1.487697
H     -7.118239    2.618463   -0.528475
H     -7.333910    1.082313    0.356959
H     -4.623302   -0.445332   -0.751413
H     -5.903411   -0.381205    0.508364
H     -4.484273    0.328553    2.216619
H     -3.506343   -0.789213    1.271122
H     -2.198569    0.568420   -0.856332
H     -1.460435    1.963536   -0.122292
H     -1.217733   -0.504267    1.667979
H     -0.502093    0.962981    1.592383
H      0.948972    0.811362   -0.175805
H     -1.715899   -1.636353    0.120895
H     -2.897985   -3.622554    0.517264
H     -1.729185   -5.797307    0.463221
H      0.668860   -5.862925    0.118350
H      5.076946   -3.081278   -1.246854
H      6.094683   -0.943386   -1.858321
H      2.435970    0.969135   -0.969914
H      3.694263    2.648616    0.190975
H      4.805742    1.810833    1.385060
H      4.967027    3.568406    1.067143
H      7.542005    2.189389    0.570699
H      6.493539    0.767607    0.742021
H      7.366940    1.113996   -0.835928
H     -3.382710    3.179601    1.687152
H     -3.286039    3.056059   -0.087489
H     -5.555236    1.972033    1.687330
H     -5.598496    3.387714    0.556640
