48

Cl    -8.177716    0.078558   -1.566382
C     -7.021111    0.095399   -0.243661
C     -7.393986    0.063168    1.074023
C     -6.487234    0.076757    2.101371
C     -5.144060    0.125322    1.744906
C     -4.720353    0.158874    0.438151
C     -5.659229    0.144178   -0.556222
N     -3.337413    0.204835    0.106448
C     -2.415311    0.292439    1.198230
C     -0.971457    0.199610    0.766888
N     -0.817062   -0.507247   -0.426021
C      0.098766   -1.530020   -0.605090
C      1.517347   -1.110776   -0.647497
C      2.061341   -0.417277    0.566282
N      3.494115   -0.145245    0.305865
N      4.508903   -0.927735    0.582318
C      5.679520   -0.375354    0.211773
C      7.008028   -0.775899    0.278665
C      8.038037    0.011826   -0.189591
C      7.683845    1.229306   -0.733623
C      6.339682    1.609886   -0.789641
N      5.360119    0.818030   -0.323897
C      4.003104    0.956155   -0.262879
O      3.319480    1.936643   -0.663440
C     -1.522448   -0.046458   -1.561677
C     -2.997851    0.154209   -1.298825
H     -8.451359    0.024542    1.304842
H     -6.823622    0.051045    3.126697
H     -4.431382    0.138681    2.555364
H     -5.376861    0.174688   -1.592291
H     -2.605935   -0.500621    1.966811
H     -2.538755    1.248026    1.750433
H     -0.653391    1.266235    0.601443
H     -0.376681   -0.277115    1.576862
H      0.005478   -2.380502    0.132000
H     -0.146193   -2.036485   -1.601637
H      1.771141   -0.518273   -1.571688
H      2.131255   -2.055059   -0.784914
H      1.909910   -0.951104    1.499856
H      1.590352    0.588524    0.634774
H      7.270176   -1.733500    0.707800
H      9.080269   -0.289521   -0.142100
H      8.465399    1.871776   -1.109840
H      6.090336    2.563149   -1.219081
H     -1.424648   -0.798296   -2.371876
H     -1.041671    0.887321   -1.956479
H     -3.302942    1.083892   -1.809560
H     -3.587929   -0.676589   -1.791464
