60

C     -8.542458   -0.202163   -1.875393
C     -7.732145    0.849378   -1.539551
C     -6.347225    0.763878   -1.545600
C     -5.793177   -0.441946   -1.908853
C     -4.395840   -0.524463   -1.909729
C     -3.613367    0.541153   -1.565657
C     -2.138071    0.443815   -1.553247
C     -1.595701    0.136855   -0.226980
C     -1.040850    1.136974    0.540409
N     -0.544910    0.859887    1.777913
C     -0.564396   -0.366185    2.310846
N     -1.116560   -1.339927    1.536561
C     -1.619200   -1.126216    0.314627
O     -2.118692   -2.077575   -0.355032
N     -0.080574   -0.697834    3.602339
C      0.523224    0.264871    4.470086
C      1.924771    0.671201    4.119782
S      3.039981   -0.733804    4.152460
C      2.852452   -1.894020    2.810384
C      3.383424   -1.250481    1.558291
O      4.634165   -1.345950    1.209768
C      4.882737   -0.719211    0.098937
C      3.702228   -0.160854   -0.327768
C      2.741908   -0.505610    0.613838
C      6.232895   -0.684244   -0.500109
N      6.367776    0.186386   -1.611504
C      5.553972   -0.072693   -2.745850
C      7.686406    0.660715   -1.867190
C     -4.206780    1.733433   -1.207894
C     -5.598466    1.864702   -1.192293
C     -6.594237   -1.515188   -2.251358
C     -7.949539   -1.408243   -2.238373
H     -9.623909   -0.150921   -1.875294
H     -8.169129    1.795854   -1.254679
H     -3.997585   -1.464897   -2.199476
H     -1.857675   -0.308992   -2.323543
H     -1.740145    1.446570   -1.885841
H     -0.976719    2.173169    0.194197
H     -0.140675    1.645472    2.331655
H     -0.178594   -1.710355    3.931170
H     -0.107635    1.207078    4.486751
H      0.522494   -0.117717    5.530997
H      2.004282    1.171268    3.134584
H      2.306028    1.386412    4.913577
H      1.773209   -2.189301    2.640723
H      3.468556   -2.794419    2.991577
H      3.563780    0.424753   -1.217077
H      1.704619   -0.236240    0.591252
H      6.452549   -1.717504   -0.846831
H      6.944392   -0.438751    0.287027
H      6.241820   -0.327883   -3.606208
H      4.953162   -0.976135   -2.579611
H      4.976006    0.799105   -3.117574
H      7.958172    0.380253   -2.919663
H      7.824124    1.743080   -1.788009
H      8.385850    0.069120   -1.220599
H     -3.568587    2.553232   -0.943342
H     -6.033756    2.809669   -0.907717
H     -6.080114   -2.439323   -2.527923
H     -8.538272   -2.273617   -2.513982
