64

O     -0.001107    0.363137   -0.000000
C     -1.200005   -3.356898   -1.772140
O     -0.264606   -2.423169   -1.324610
C     -0.688144   -1.925500   -0.083561
C      0.370784   -2.341049    0.917019
N      1.615367   -1.662269    0.647662
C      2.639436   -2.305323    1.444776
C      4.003408   -1.675776    1.246389
C      4.417175   -1.778856   -0.199617
O      5.638444   -1.229976   -0.490737
C      6.116172    0.044365   -0.412124
C      5.417371    1.157788   -0.006278
C      5.991675    2.432871    0.046302
C      7.298308    2.598069   -0.317048
F      7.883364    3.823848   -0.276387
C      8.030555    1.507569   -0.729535
C      7.444101    0.267687   -0.771942
C      1.491522   -0.262934    0.905736
C      0.052390    0.131358    1.006400
C     -0.768951   -0.433134   -0.146039
N     -2.135656    0.058437   -0.005202
C     -2.767008    0.863514   -0.952193
O     -2.034598    1.142920   -1.978098
C     -4.092903    1.409839   -0.937179
C     -4.535280    2.204715   -2.004628
C     -5.790067    2.756273   -2.050857
Cl    -6.272625    3.736209   -3.412687
C     -6.695261    2.557173   -1.039073
N     -8.005106    3.127599   -1.078008
C     -6.303569    1.785578    0.024753
C     -5.014777    1.222328    0.066544
O     -4.666053    0.449443    1.164113
C     -5.614509    0.260687    2.189483
H     -0.824985   -0.181947   -0.000000
H      0.826092   -0.181190    0.000000
H     -1.329902   -4.208036   -1.097491
H     -0.998836   -3.672590   -2.802947
H     -2.179159   -2.813740   -1.798216
H     -1.648603   -2.400864    0.215140
H      0.580735   -3.439931    0.759504
H      0.035017   -2.259153    1.961963
H      2.711762   -3.354012    1.125118
H      2.333007   -2.272478    2.490342
H      4.713499   -2.372895    1.798544
H      4.125563   -0.711996    1.716881
H      3.595643   -1.434671   -0.877822
H      4.489361   -2.891139   -0.412499
H      4.396444    1.064146    0.269899
H      5.421474    3.292972    0.369432
H      9.073238    1.672047   -1.013970
H      8.019798   -0.586364   -1.095670
H      1.996577    0.028366    1.842446
H      1.938544    0.329832    0.055948
H     -0.387805   -0.263948    1.939893
H     -0.076881    1.245029    1.015692
H     -0.349112   -0.062929   -1.101250
H     -2.639207   -0.217754    0.847426
H     -3.827211    2.376137   -2.823531
H     -8.805360    2.697925   -0.569699
H     -8.103689    4.010196   -1.655089
H     -6.989679    1.597819    0.856177
H     -6.010396    1.206982    2.602506
H     -5.146612   -0.374057    2.987922
H     -6.499167   -0.328278    1.844078
