28

O      4.218238    0.118406    0.705570
C      3.035520   -0.512783    1.154699
C      2.063174   -0.446101    0.005256
O      0.842603   -1.030676    0.293454
C     -0.032503   -0.594891   -0.666322
C      0.427883    0.742469   -1.164164
C      1.635657    1.003670   -0.257055
O      2.614943    1.724257   -0.897358
N     -1.388109   -0.444907   -0.181644
C     -2.378726   -0.376511   -1.085015
C     -3.708934   -0.233056   -0.720717
F     -4.706024   -0.165320   -1.663526
C     -4.027775   -0.157673    0.619598
O     -5.216483   -0.027373    1.009453
N     -3.022137   -0.228126    1.505537
C     -1.724708   -0.369174    1.115725
O     -0.794225   -0.433636    1.957777
H      4.475082   -0.285005   -0.172825
H      2.680441   -0.024465    2.058456
H      3.250416   -1.584320    1.334682
H      2.501843   -0.812991   -0.940357
H     -0.025242   -1.367417   -1.489327
H     -0.318957    1.534620   -1.095038
H      0.831463    0.606850   -2.192279
H      1.238624    1.482483    0.653470
H      2.968273    2.484558   -0.372673
H     -2.181472   -0.431319   -2.163457
H     -3.258864   -0.171569    2.519055
