47

C      4.006223    2.973842    2.857041
C      3.988160    2.250986    1.539757
O      4.930088    2.274430    0.632621
N      4.659983    1.569292   -0.397388
C      3.430673    1.017129   -0.176799
C      2.992260    1.438716    1.044207
C      1.749368    1.121011    1.716437
O      1.555028    1.624822    2.884420
N      0.713804    0.304637    1.216891
C     -0.462925    0.095187    2.031320
C     -1.789846    0.317844    1.379284
S     -1.722203    0.732969   -0.411659
C     -2.777758   -0.626848   -0.998143
C     -4.025813   -0.076037   -1.604711
C     -2.048536   -1.540465   -1.953250
C     -3.083728   -1.355835    0.314910
N     -1.998073   -1.105807    1.222218
C     -0.929107   -1.326094    2.120200
O     -0.442564   -2.276883    2.798225
C     -4.342979   -0.952356    0.925785
O     -5.530906   -1.089566    0.232958
O     -4.390699   -0.475957    2.079946
C      2.832293    0.146822   -1.174930
C      3.016901   -1.208820   -1.193709
F      3.774116   -1.791860   -0.239563
C      2.435797   -1.964986   -2.175224
C      1.656287   -1.398054   -3.164251
C      1.480889   -0.042358   -3.132132
C      2.057936    0.731868   -2.152557
Cl     1.800923    2.490713   -2.151938
H      4.191986    2.273171    3.694975
H      4.830436    3.697330    2.854341
H      3.020424    3.446180    3.071723
H      0.827246   -0.119561    0.282885
H     -0.421825    0.601402    2.994540
H     -2.529021    0.891154    1.930207
H     -3.746987    0.507715   -2.516233
H     -4.719428   -0.848550   -1.938825
H     -4.472499    0.652645   -0.898085
H     -2.397558   -1.298825   -2.973823
H     -2.293792   -2.613657   -1.763357
H     -0.955761   -1.356755   -1.923177
H     -3.153292   -2.456253    0.116555
H     -6.365518   -0.556409    0.456876
H      2.567681   -3.047373   -2.212155
H      1.213711   -2.049278   -3.927693
H      0.868604    0.418727   -3.905391
