49

C      5.220158    0.132622   -0.356939
C      3.848489    0.601374    0.171447
C      3.385636    1.749365   -0.703768
C      4.149259    1.131150    1.559608
N      2.985622   -0.511343    0.103137
C      2.307802   -0.950118    1.270930
C      1.549404   -2.235564    0.852160
O      2.524584   -3.158694    0.414183
C      0.688089   -1.825718   -0.298322
O     -0.360800   -0.995535    0.188071
C     -1.271836   -0.454051   -0.734722
C     -1.082431   -0.735573   -2.100615
C     -1.959726   -0.213313   -3.031737
C     -2.995131    0.568419   -2.584023
C     -3.161421    0.828785   -1.244707
C     -4.275872    1.658510   -0.690237
C     -4.933493    0.950641    0.472382
O     -5.992667    0.202898   -0.083580
C     -4.034096    0.146514    1.332957
O     -4.140475   -1.223009    1.141362
C     -2.574223    0.605097    1.122146
C     -2.290250    0.314130   -0.292615
H      5.104570    0.006271   -1.469355
H      5.440688   -0.834991    0.116139
H      5.967746    0.921000   -0.109351
H      3.505594    2.715982   -0.127799
H      3.955843    1.828413   -1.646173
H      2.303502    1.618574   -0.927682
H      3.973960    0.386623    2.338004
H      5.238537    1.446267    1.565201
H      3.583525    2.095337    1.726777
H      3.340699   -1.267867   -0.527058
H      1.513532   -0.196274    1.502982
H      2.858980   -1.219230    2.151241
H      0.988190   -2.597952    1.686348
H      2.124296   -4.065267    0.427565
H      1.251931   -1.301922   -1.108713
H      0.211499   -2.722768   -0.741218
H     -0.279374   -1.346697   -2.419480
H     -1.777719   -0.453270   -4.079211
H     -3.677004    0.973884   -3.310935
H     -3.806312    2.639893   -0.384742
H     -4.981874    1.864087   -1.509316
H     -5.409900    1.727699    1.136803
H     -6.307969    0.669943   -0.899413
H     -4.227419    0.346440    2.417755
H     -4.036056   -1.533997    0.229656
H     -2.538177    1.691920    1.300394
H     -1.907908    0.021314    1.812584
