43

C      4.316580    0.024835   -0.142313
N      3.661935   -1.282706   -0.037452
C      4.497230   -2.209271    0.629159
C      2.419466   -1.103197    0.702774
C      1.362991   -0.367435   -0.110017
C      0.172790   -0.050150    0.779939
N     -0.898596    0.578268    0.029026
C     -0.578039    1.815403   -0.608078
C      0.613936    2.467519   -0.276039
C      0.932909    3.712804   -0.781210
C      0.091772    4.386382   -1.639897
C     -1.090519    3.711671   -1.950948
C     -1.393055    2.503911   -1.458988
S     -2.936672    1.775969   -1.962240
C     -3.145126    0.356564   -0.921626
C     -4.350778   -0.255119   -0.951440
C     -4.619351   -1.369578   -0.179770
C     -3.653691   -1.872888    0.630155
C     -2.412446   -1.250408    0.661099
C     -2.130541   -0.110345   -0.120067
C     -3.893872   -3.050846    1.508706
F     -2.669425   -3.492060    1.991791
F     -4.475434   -4.068840    0.800890
F     -4.712342   -2.626790    2.541512
H      5.191691    0.047964    0.579897
H      4.694340    0.182236   -1.146248
H      3.645548    0.823877    0.258982
H      3.947150   -3.123859    0.947433
H      5.319489   -2.573127   -0.057386
H      5.003702   -1.789952    1.519601
H      2.595200   -0.645024    1.692506
H      2.052010   -2.161424    0.903745
H      0.944575   -1.219250   -0.784081
H      1.717307    0.362122   -0.793646
H     -0.066390   -1.031027    1.218510
H      0.498128    0.623981    1.632731
H      1.305443    2.008611    0.457139
H      1.879039    4.151439   -0.464819
H      0.351214    5.341968   -2.022134
H     -1.746220    4.228630   -2.619600
H     -5.172260    0.089899   -1.579902
H     -5.602937   -1.866875   -0.207707
H     -1.666749   -1.673881    1.330019
