53

O     -1.635307    0.344188   -2.184606
C     -1.176942    0.602980   -0.857836
C      0.257416    0.634782   -0.849626
C      1.136424   -0.501539   -1.174759
N      2.560487   -0.028106   -1.145723
C      2.922207    0.433200    0.181421
C      4.382089    0.110560    0.473092
C      4.366500   -1.372646    0.846724
C      3.618850   -2.088016   -0.268556
C      3.367842   -1.210015   -1.478527
C     -1.978781   -0.352843   -0.058553
C     -1.738104   -1.786837   -0.546306
C     -1.562631   -2.762576    0.570574
C     -2.672748   -2.665509    1.600709
C     -3.030934   -1.232357    1.921303
C     -1.850638   -0.384098    1.407911
C     -1.638303    2.011732   -0.562902
C     -1.157272    2.688294    0.542593
C     -1.535348    3.994714    0.836596
C     -2.412066    4.639669    0.013567
C     -2.908779    3.997256   -1.088970
C     -2.519084    2.699813   -1.363393
H     -1.060783    0.747299   -2.850423
H      0.581672    1.470597   -1.566241
H      0.611561    1.077914    0.147107
H      1.142849   -1.233764   -0.343173
H      1.060508   -0.903755   -2.180358
H      2.896674    1.563828    0.108322
H      2.323420    0.069469    1.004985
H      5.015793    0.293608   -0.421223
H      4.680975    0.668912    1.374616
H      3.840519   -1.451955    1.814349
H      5.418921   -1.676887    0.941455
H      2.723980   -2.594712    0.109611
H      4.329280   -2.895277   -0.605032
H      2.785420   -1.791100   -2.218026
H      4.315806   -0.877915   -1.932526
H     -3.050679   -0.141667   -0.292869
H     -0.894346   -1.870587   -1.246362
H     -2.622737   -2.132520   -1.171470
H     -0.568981   -2.739010    1.049104
H     -1.632773   -3.781042    0.113344
H     -2.251689   -3.101603    2.553145
H     -3.543487   -3.289474    1.372834
H     -3.968639   -0.998093    1.338128
H     -3.195789   -1.067158    3.004277
H     -0.965061   -0.902435    1.818632
H     -1.956818    0.569222    1.954161
H     -0.466573    2.260115    1.248931
H     -1.138892    4.501683    1.709839
H     -2.675602    5.670158    0.290675
H     -3.599102    4.548250   -1.712678
H     -2.930306    2.235255   -2.227870
