48

C      1.796572    0.395526   -1.439890
C      1.695653    0.194680    0.044510
C      3.001672    0.614385    0.748717
N      4.157558   -0.053036    0.398858
C      4.167790   -1.426550    0.796090
C      4.787168    0.151167   -0.834531
C      0.511455    0.752475    0.737943
N     -0.791205    0.369794    0.411235
C     -1.622006    1.316203   -0.287822
C     -0.907109    2.352885   -0.819246
C     -1.549530    3.384323   -1.532489
C     -2.912717    3.361560   -1.704507
C     -3.652825    2.325598   -1.177316
C     -3.021577    1.318607   -0.480501
C     -3.975175    0.285987    0.007177
C     -3.545337   -1.084438   -0.547879
C     -2.454665   -1.593155    0.353158
C     -2.740256   -2.872183    0.800069
C     -1.874412   -3.517881    1.653011
C     -0.730668   -2.857151    2.041259
C     -0.463552   -1.574447    1.581374
C     -1.307980   -0.924158    0.738574
H      2.121379    1.432021   -1.655032
H      2.510775   -0.285317   -1.929841
H      0.777781    0.321186   -1.930498
H      1.814189   -0.935762    0.150795
H      2.833312    0.500430    1.861064
H      3.103173    1.699972    0.490398
H      5.182810   -1.656841    1.186602
H      3.451210   -1.640724    1.623698
H      3.936402   -2.147934   -0.011246
H      5.893520    0.336486   -0.664590
H      4.796257   -0.752205   -1.504473
H      4.452793    1.015496   -1.444394
H      0.733561    0.637307    1.879986
H      0.622924    1.880324    0.878222
H      0.147268    2.376274   -0.694188
H     -0.950828    4.188752   -1.939154
H     -3.413926    4.161158   -2.257828
H     -4.733113    2.310052   -1.315869
H     -3.838360    0.211934    1.110951
H     -4.996228    0.543966   -0.276176
H     -3.197528   -1.009600   -1.594158
H     -4.399673   -1.770371   -0.521721
H     -3.647011   -3.355530    0.473655
H     -2.115129   -4.527266    1.995949
H     -0.052343   -3.355219    2.705797
H      0.397932   -1.098778    1.894254
