45

C      6.376982    0.090012    0.847113
C      6.158696    0.384095   -0.600357
C      4.837672   -0.211195   -1.035356
C      3.750188    0.409822   -0.209968
N      2.438034   -0.096964   -0.552082
C      1.314516    0.406614    0.153604
O      1.521533    1.270273    1.042367
O      0.018300   -0.017027   -0.102346
C     -1.019251    0.557885    0.666362
C     -2.377355   -0.007544    0.268763
C     -3.411662    0.642372    1.116881
C     -2.331214   -1.503843    0.633603
C     -3.610494   -2.190822    0.294853
C     -3.467340   -3.645805    0.687859
C     -2.576615    0.179848   -1.180346
O     -2.534208    1.457300   -1.666576
C     -3.300564    2.547153   -1.551958
N     -3.024809    3.814562   -2.159951
O     -4.346280    2.490359   -0.868299
H      6.244088    1.002451    1.489216
H      5.714414   -0.701074    1.246353
H      7.419656   -0.257516    1.059206
H      6.118991    1.484010   -0.729348
H      6.968583   -0.072511   -1.197003
H      4.620981   -0.058591   -2.103232
H      4.845567   -1.312869   -0.841285
H      3.897877    0.150992    0.878650
H      3.722798    1.500779   -0.305735
H      2.310419   -0.820915   -1.304006
H     -0.988099    1.647480    0.624249
H     -0.853072    0.252700    1.721331
H     -3.272343    0.160473    2.159046
H     -4.460409    0.474882    0.806092
H     -3.141007    1.694495    1.327324
H     -2.207016   -1.527990    1.735154
H     -1.496943   -2.019089    0.163784
H     -3.838931   -2.182382   -0.792521
H     -4.464704   -1.792695    0.894677
H     -2.568060   -4.030047    0.172998
H     -4.332259   -4.179891    0.253641
H     -3.379904   -3.780259    1.782342
H     -1.850654   -0.467638   -1.761415
H     -3.570003   -0.259205   -1.520300
H     -3.056648    3.906275   -3.185021
H     -2.799451    4.611037   -1.555902
