36

C      2.910715   -0.001781    1.308800
N      2.962703    0.499675    0.001597
C      4.306605    0.669379   -0.515622
C      2.003677    0.155329   -0.972320
C      0.688674    0.677248   -0.678344
C     -0.474755    0.087741   -0.475803
C     -1.613742    1.011108   -0.206756
C     -2.875533    0.852029   -0.617049
C     -3.898377    1.725050   -0.192880
C     -3.608255    2.774976    0.660181
Br    -4.936255    3.992643    1.277051
C     -2.322064    2.955091    1.087216
C     -1.348801    2.079760    0.654341
C     -0.557209   -1.347114   -0.340807
C     -1.786582   -1.988655   -0.312570
C     -1.892587   -3.373179   -0.130689
C     -0.785276   -4.159224    0.029670
N      0.387223   -3.548539    0.006049
C      0.514726   -2.189023   -0.170966
H      3.682721    0.582581    1.909763
H      1.947977    0.270097    1.814947
H      3.141010   -1.089286    1.440493
H      5.005152   -0.113283   -0.212225
H      4.262783    0.715650   -1.607607
H      4.689526    1.654929   -0.158616
H      2.400458    0.880336   -1.889827
H      2.103626   -0.766387   -1.534580
H      0.620151    1.807845   -0.618599
H     -3.200342    0.112897   -1.347644
H     -4.902071    1.583922   -0.521948
H     -2.083051    3.769310    1.751148
H     -0.345103    2.216889    1.000330
H     -2.742083   -1.520133   -0.387984
H     -2.877864   -3.846578   -0.118577
H     -0.916460   -5.230222    0.168556
H      1.538682   -1.901083   -0.098729
