55

C     -2.601288    3.750650    1.137400
C     -2.048243    3.246878   -0.192716
C     -1.428165    4.466951   -0.929640
N     -1.143599    2.249673   -0.135502
C     -0.808395    1.074119   -0.029931
C      0.577071    0.786821   -0.072628
C      1.093633   -0.467344    0.022177
N      2.435052   -0.712389   -0.023065
C      3.290707    0.420516   -0.176477
C      3.975176    0.966768    0.889224
C      4.807905    2.062873    0.761199
C      4.980921    2.656465   -0.473151
Cl     6.033985    4.051347   -0.663955
C      4.298923    2.114211   -1.541699
C      3.467774    1.020256   -1.414145
C      2.904053   -1.964710    0.073833
C      4.261952   -2.191360    0.025963
C      4.791809   -3.466226    0.121904
C      3.927655   -4.524511    0.268543
C      2.582027   -4.297089    0.315707
C      2.020916   -3.017478    0.220914
N      0.690198   -2.841060    0.272247
C      0.189229   -1.593213    0.177434
C     -1.151578   -1.329425    0.220974
C     -1.643537   -0.029858    0.119649
N     -3.032984    0.193427    0.222626
C     -4.010719   -0.832751    0.118843
C     -3.937926   -1.870983   -0.775553
C     -4.886142   -2.877165   -0.839728
C     -5.948724   -2.852146    0.015889
Cl    -7.157640   -4.117459   -0.051798
C     -6.045323   -1.809933    0.930538
C     -5.107875   -0.819295    0.991447
H     -3.627647    3.379046    1.221720
H     -2.645572    4.844989    1.103371
H     -1.997095    3.379099    1.980106
H     -2.915845    2.994331   -0.879677
H     -0.777307    4.990974   -0.228700
H     -2.231838    5.122762   -1.311979
H     -0.843818    4.112807   -1.796003
H      1.258339    1.613531   -0.187042
H      3.830248    0.486627    1.866783
H      5.340281    2.479535    1.617191
H      4.443364    2.587945   -2.500151
H      2.930938    0.591487   -2.248876
H      4.910000   -1.343315   -0.089262
H      5.864427   -3.652589    0.084797
H      4.340801   -5.519249    0.343418
H      1.894775   -5.128215    0.431312
H     -1.814073   -2.170226    0.362312
H     -3.400021    1.143730    0.394085
H     -3.103890   -1.893908   -1.488024
H     -4.782763   -3.669960   -1.559023
H     -6.886651   -1.793792    1.604381
H     -5.163500   -0.002171    1.692738
