50

O     -0.313135   -1.526134   -0.735466
C     -0.156465   -1.817356    0.581815
C      0.734141   -0.945369    1.391386
O      2.052196   -0.914123    1.040402
C      2.826710   -0.520832    0.031272
C      2.391863    0.102865   -1.111698
C      3.254928    0.486889   -2.139059
C      4.614554    0.232001   -2.009824
O      5.441742    0.588180   -2.972841
C      6.725519    0.366183   -2.889969
C      7.268729   -0.260736   -1.769935
C      6.446848   -0.650480   -0.739036
O      6.892283   -1.223554    0.299454
C      5.080083   -0.391520   -0.874002
C      4.213918   -0.758151    0.119484
C      7.630710    0.764269   -3.963334
O      8.995210    0.540832   -3.913742
O      7.181108    1.334237   -4.984531
C     -1.485104   -2.170628    1.224373
O     -2.476090   -1.305067    1.229200
C     -2.997262   -0.140057    1.603352
C     -2.301880    0.736912    2.406220
C     -2.894199    1.928254    2.761472
C     -4.160207    2.249683    2.329508
C     -4.898210    1.406495    1.525910
O     -6.114753    1.725830    1.117733
C     -6.848573    0.942732    0.349314
C     -6.287463   -0.260147   -0.027543
C     -5.011533   -0.642006    0.375252
O     -4.484881   -1.735710    0.040776
C     -4.299398    0.229416    1.180473
C     -8.178426    1.355650   -0.063030
O     -8.718915    2.564070    0.329191
O     -8.863947    0.604528   -0.794400
H     -1.286115   -1.355984   -0.904492
H      0.418806   -2.836604    0.566237
H      0.323342    0.123007    1.205076
H      0.559286   -1.089059    2.486721
H      1.348926    0.348132   -1.252763
H      2.898839    0.977665   -3.035760
H      8.321582   -0.436200   -1.717191
H      4.558112   -1.245882    1.015948
H      9.494504    0.174811   -4.742301
H     -1.811612   -3.111527    0.648786
H     -1.290669   -2.608397    2.254555
H     -1.308400    0.501196    2.777974
H     -2.329172    2.623955    3.404061
H     -4.596404    3.204970    2.631699
H     -6.858492   -0.948446   -0.666073
H     -9.702632    2.781209    0.243083
