9

N     -1.593208   -0.143792    0.059404
C     -0.319661    0.499755   -0.012772
O     -0.176218    1.742062    0.086721
N      0.837021   -0.327627   -0.208203
O      2.024400    0.268061   -0.275877
H     -2.033871   -0.507272   -0.805192
H     -2.061362   -0.239505    0.975936
H      0.688450   -1.375241   -0.289259
H      2.634449    0.083558    0.469241
