35

C     -5.256613   -1.214814   -0.970840
C     -4.894676   -0.611258    0.373004
N     -3.442831   -0.615016    0.462880
C     -2.757960    0.604327    0.176972
N     -2.409495    1.650814    0.336164
C     -2.474387    2.762970    1.202157
N     -2.542354    3.698247    1.911322
N     -1.475953    0.048268   -0.746303
C     -0.363150    0.915642   -0.700263
C      0.287479    0.660877    0.686499
S      0.857763   -0.964936    0.804987
C      2.224943   -1.642589   -0.052167
C      3.475755   -0.877056    0.163716
C      4.620442   -1.114404    0.348317
C      5.728954   -0.183011    0.251871
C      5.479587    0.925169   -0.050371
C      4.172726    1.421180   -0.356981
N      3.117145    0.666173   -0.281715
Br     5.260579   -3.030573    0.462766
H     -4.734765   -2.232433   -1.022025
H     -6.346781   -1.388026   -0.959734
H     -4.901673   -0.599939   -1.805287
H     -5.296346    0.444258    0.388186
H     -5.312544   -1.140062    1.219049
H     -3.010190   -1.531298    0.693867
H     -1.620524   -0.799905   -1.171600
H     -0.667754    1.950687   -0.781265
H      0.441182    0.657426   -1.397894
H     -0.596763    0.739881    1.428911
H      0.985996    1.497697    0.953973
H      2.343365   -2.678990    0.166407
H      2.069890   -1.608007   -1.203548
H      6.688718   -0.742970    0.583043
H      6.241678    1.844665   -0.137699
H      4.108557    2.487007   -0.677514
