33

C     -4.577067    0.199663   -0.260066
C     -3.093760    0.342533   -0.218614
C     -2.597146    0.945401    1.076276
C     -2.373649   -0.964323   -0.483111
C     -0.908120   -0.719808   -0.420937
C     -0.249855   -0.367544   -1.567611
C      1.110874   -0.118986   -1.614722
C      1.841354   -0.231147   -0.450374
C      1.188572   -0.584994    0.708599
C     -0.176084   -0.831597    0.742886
C      3.293159    0.024485   -0.454084
C      4.071340   -1.219515   -0.097620
C      3.634761    1.164420    0.412326
O      3.120069    2.426624    0.182206
O      4.406638    1.005346    1.383079
H     -5.027022    1.201097   -0.170331
H     -4.887094   -0.464035    0.569008
H     -4.863654   -0.206496   -1.239095
H     -2.779624    1.033890   -1.042912
H     -3.242177    1.819209    1.293328
H     -2.678209    0.228179    1.917208
H     -1.550091    1.295022    0.974645
H     -2.637309   -1.732576    0.294613
H     -2.607194   -1.337592   -1.499157
H     -0.799519   -0.276380   -2.476484
H      1.605982    0.159561   -2.543001
H      1.740222   -0.681270    1.643966
H     -0.706334   -1.110257    1.641215
H      3.617972    0.296825   -1.496384
H      5.126913   -0.916080    0.055325
H      4.002475   -1.896610   -0.983207
H      3.724626   -1.706586    0.823523
H      3.268951    3.223540    0.774420
