43

C     -3.402367    0.504815   -1.064209
C     -4.163755   -0.004384   -0.028400
C     -5.531442    0.162053   -0.061727
C     -6.137985    0.826619   -1.110691
C     -5.377439    1.334638   -2.142866
C     -3.994830    1.169513   -2.114662
Cl    -6.455243   -0.500297    1.277192
C     -3.703294   -0.713694    1.151842
N     -2.363493   -0.790285    1.608411
C     -1.256511    0.054309    1.234348
C     -1.096764    0.260474   -0.211830
N     -1.992186    0.437819   -1.211350
C     -1.377136    0.569439   -2.391406
N     -0.059462    0.477456   -2.147359
C      0.141375    0.287530   -0.810490
C      1.460745    0.167828   -0.189710
N      2.625254    0.236326   -0.894180
C      3.644176    0.104297   -0.055032
O      3.140858   -0.042298    1.130996
N      1.844335   -0.006951    1.067603
C      5.075992    0.120937   -0.385412
C      5.853310   -0.880164    0.454279
O      5.367124   -2.148452    0.154399
C      5.676375    1.478457   -0.096778
O      5.258053   -0.159268   -1.743163
C     -2.104861   -1.864699    2.577521
O     -4.586339   -1.310481    1.822114
H     -7.225783    0.938668   -1.103510
H     -5.820511    1.857719   -2.976329
H     -3.449317    1.586994   -2.933199
H     -1.259950    1.005178    1.806861
H     -0.346935   -0.494911    1.600522
H     -1.823480    0.714549   -3.391402
H      6.940091   -0.845872    0.202317
H      5.736119   -0.679746    1.534277
H      4.967756   -2.115664   -0.751002
H      6.670274    1.585295   -0.613639
H      5.841165    1.513976    1.019972
H      4.964801    2.284433   -0.382440
H      4.479875   -0.655563   -2.109921
H     -1.022965   -2.001763    2.684645
H     -2.612605   -1.672877    3.534633
H     -2.523021   -2.791955    2.086322
