44

C      2.711069   -2.979454   -1.853420
N      2.317653   -2.199654   -0.694501
C      2.818381   -2.622546    0.599059
C      1.465993   -1.056081   -0.822048
O      1.064005   -0.747057   -1.988156
C      1.121848   -0.328119    0.402323
C      0.205016    0.792914    0.258217
N      0.645422    2.075576    0.130076
C      1.896873    2.612082    0.123232
C      2.118923    3.965290   -0.021679
C      3.508675    4.534123   -0.026932
C      1.037850    4.808770   -0.165045
C     -0.233329    4.278394   -0.159722
C     -0.403863    2.894073   -0.009061
N     -1.493553    2.129508    0.032266
C     -1.157862    0.806242    0.199096
C     -2.136481   -0.262788    0.331465
C     -2.067912   -1.414464   -0.378441
C     -3.032411   -2.429810   -0.203823
C     -4.067472   -2.279659    0.689682
C     -5.085619   -3.368591    0.864680
C     -4.134124   -1.104682    1.410163
C     -3.189776   -0.115415    1.236611
H      2.070552   -3.882663   -1.986356
H      2.745513   -2.392680   -2.786327
H      3.747518   -3.366209   -1.680107
H      3.372977   -1.732883    1.015049
H      3.456908   -3.497776    0.521070
H      1.954406   -2.757667    1.288241
H      0.716407   -1.106548    1.118395
H      2.099304   -0.035292    0.877293
H      2.764675    1.959224    0.235851
H      3.659929    5.124758    0.893243
H      3.630334    5.190055   -0.917484
H      4.201721    3.678909   -0.109553
H      1.130103    5.879726   -0.284519
H     -1.083156    4.931305   -0.272282
H     -1.305327   -1.599293   -1.091505
H     -2.944060   -3.332369   -0.786042
H     -5.329561   -3.432789    1.945603
H     -6.010157   -3.130316    0.304313
H     -4.610784   -4.305948    0.493362
H     -4.957923   -0.992519    2.117614
H     -3.218686    0.812321    1.787091
