46

C     -1.895247    3.250078    0.161737
C     -2.417459    2.251749    1.211018
C     -3.015791    1.082497    0.516678
N     -2.190706    0.256854   -0.262677
C     -2.855655   -0.576070   -1.146430
C     -3.711817   -1.595013   -0.456975
C     -2.898634   -2.488300    0.430172
C     -0.809133    0.213559   -0.016272
C     -0.070913   -0.685109   -0.875397
C      1.353739   -0.867694   -0.789613
C      1.863465   -1.875942   -1.634769
C      3.166249   -2.216004   -1.697374
C      4.067480   -1.539635   -0.888749
C      3.593357   -0.542780   -0.047009
C      2.230504   -0.205914    0.001921
C      2.070175    0.861268    0.965409
C      3.424802    1.150991    1.496109
N      4.320518    0.271477    0.852106
C      3.741150    2.089098    2.402170
O      5.414569   -1.832484   -0.902081
H     -1.947240    2.773093   -0.826268
H     -2.639985    4.106450    0.083415
H     -0.933445    3.676008    0.450177
H     -1.620670    1.982862    1.937758
H     -3.215597    2.777154    1.767460
H     -3.479059    0.403915    1.309627
H     -3.913727    1.459713   -0.067670
H     -3.583718    0.031485   -1.773151
H     -2.193971   -1.156130   -1.829000
H     -4.552247   -1.129317    0.112299
H     -4.141161   -2.253960   -1.254850
H     -2.372067   -3.261867   -0.202577
H     -2.151007   -1.964744    1.036453
H     -3.567111   -3.099387    1.103627
H     -0.710553   -0.122408    1.066905
H     -0.361798    1.245866   -0.103950
H     -0.266284   -0.358543   -1.950868
H     -0.567755   -1.706088   -0.849731
H      1.169178   -2.418012   -2.269588
H      3.594979   -2.975714   -2.330035
H      1.471618    0.566786    1.874233
H      1.734266    1.846142    0.568177
H      5.360977    0.243115    1.029592
H      4.773590    2.180101    2.692970
H      2.937980    2.696671    2.777077
H      5.794153   -2.545816   -1.502973
