58

C      4.582247   -0.938830   -0.481251
C      5.756634   -0.278483   -0.373958
C      6.773869   -1.051531   -0.897904
C      8.053027   -0.571238   -0.894402
C      8.339908    0.698308   -0.366385
F      9.637293    1.109202   -0.403592
C      7.326512    1.471676    0.154867
C      6.043480    0.956203    0.138083
O      6.180520   -2.148869   -1.302483
N      4.935777   -2.130212   -1.087799
C      3.198135   -0.745384   -0.078013
C      2.263715   -1.591784   -0.951591
C      0.903865   -1.569927   -0.433115
N      0.346790   -0.310831   -0.027558
C     -0.123373    0.524249   -1.076265
C     -1.094895    1.608720   -0.640481
C     -2.341577    1.028922   -0.098882
C     -3.254206    0.490257   -0.995715
N     -4.409824   -0.055065   -0.604327
C     -4.721839   -0.094978    0.699273
C     -6.023370   -0.725052    1.040204
C     -7.119046   -0.080709    0.198425
C     -6.762137   -0.076107   -1.265245
C     -5.369128   -0.620118   -1.534242
O     -5.976674   -2.102850    0.823859
N     -3.857431    0.418280    1.576618
C     -2.664393    0.986384    1.221015
C     -1.828700    1.514291    2.307013
O     -2.990755    0.512055   -2.229939
C      1.258053    0.395234    0.851048
C      2.618607    0.542803    0.187125
H      8.828511   -1.183231   -1.295476
H      7.535944    2.446283    0.552491
H      5.274173    1.547066    0.527159
H      3.136033   -1.327277    0.925068
H      2.360615   -1.290470   -2.019246
H      2.678864   -2.640219   -0.841854
H      0.777985   -2.298980    0.410981
H      0.220810   -1.954154   -1.257823
H      0.731134    1.085531   -1.534013
H     -0.546022   -0.109312   -1.888752
H     -0.631579    2.356971    0.028055
H     -1.320759    2.179379   -1.596153
H     -6.268588   -0.510381    2.105102
H     -7.198901    0.975408    0.521524
H     -8.093328   -0.565298    0.412855
H     -7.486130   -0.763186   -1.780481
H     -6.904929    0.938794   -1.742572
H     -5.149626   -0.352042   -2.601743
H     -5.403709   -1.728625   -1.486108
H     -5.260333   -2.456160    1.427607
H     -1.070084    2.239194    2.028072
H     -2.456211    1.921329    3.154294
H     -1.303721    0.643966    2.787938
H      1.364506   -0.100711    1.822657
H      0.887297    1.443770    0.949969
H      3.172448    1.143882    0.988868
H      2.444518    1.193859   -0.694127
