35

C     -3.966634    1.090552   -0.975270
C     -3.274631   -0.210578   -1.148805
N     -3.577887   -1.188033   -2.055132
N     -2.700037   -2.194220   -1.963192
C     -1.817468   -1.918380   -1.020185
C     -0.631496   -2.710318   -0.558855
N      0.605614   -1.916139   -0.558370
C      0.845996   -0.726393   -0.055524
C      2.165012   -0.169384   -0.202737
C      3.115999   -1.049688   -0.740953
C      4.401919   -0.690988   -1.055362
C      4.793775    0.617893   -0.831036
C      3.862859    1.487648   -0.303542
C      2.581197    1.096492   -0.000568
C     -0.148646   -0.018724    0.724588
C      0.401743    0.660978    1.775959
C     -0.467455    1.364403    2.585804
Cl     0.173422    2.259729    3.929828
C     -1.840911    1.395825    2.372617
C     -2.399463    0.691292    1.295468
C     -1.535220    0.012636    0.511198
N     -2.200551   -0.697925   -0.541014
H     -4.214180    1.432220   -2.043537
H     -3.306896    1.935360   -0.680281
H     -4.954996    1.055166   -0.529451
H     -0.457440   -3.519596   -1.266588
H     -0.862530   -3.058346    0.463205
H      2.847754   -2.093991   -0.933273
H      5.119573   -1.402616   -1.473965
H      5.808389    0.910389   -1.075389
H      4.215696    2.515302   -0.141860
H      1.901558    1.844432    0.349728
H      1.458263    0.604814    1.992072
H     -2.505538    1.953556    3.018568
H     -3.436789    0.636632    1.135854
