21

Cl     4.744834   -0.387176   -0.555857
C      3.140358   -0.316949    0.255057
C      2.159866    0.221023   -0.745821
N      0.818332    0.336915   -0.238901
C      0.056005   -0.764533    0.246763
O      0.663334   -1.882655    0.196451
N     -1.257991   -0.669617    0.747312
C     -1.911479    0.602525    0.796793
C     -2.679354    0.916209   -0.466036
Cl    -3.913448   -0.302317   -0.732496
N     -1.916218   -1.802118    1.189024
O     -2.156651   -1.895569    2.424198
H      3.208071    0.360543    1.113588
H      2.912794   -1.364656    0.538483
H      2.200932   -0.430169   -1.665966
H      2.507164    1.217013   -1.068280
H      0.350629    1.264833   -0.214051
H     -2.627365    0.554515    1.675215
H     -1.190302    1.393295    1.078804
H     -1.958745    1.027346   -1.277182
H     -3.150766    1.921543   -0.303616
