42

C      5.040347    1.157196    0.979138
N      3.711711    0.591186    0.858189
C      3.388828    0.189903   -0.473986
C      1.936289    0.387815   -0.840192
N      1.030265    0.267498    0.272241
C      1.452336    0.536485    1.610010
C      2.714016    1.406908    1.495207
C     -0.320062   -0.097924    0.022810
C     -0.658968   -1.369193   -0.095892
C      0.453748   -2.181442    0.056696
C      0.330432   -3.552845   -0.029761
C     -0.914929   -4.085443   -0.269144
C     -2.039670   -3.318765   -0.425965
C     -1.897961   -1.952690   -0.336602
N     -3.037989   -1.389315   -0.505694
C     -3.442329   -0.035803   -0.510731
C     -4.800114    0.135055   -0.735859
C     -5.285595    1.421506   -0.758027
C     -4.484780    2.526305   -0.567859
Cl    -5.144633    4.166863   -0.603118
C     -3.142462    2.322430   -0.346958
C     -2.600392    1.043602   -0.314707
N     -1.207927    1.038619   -0.075719
H      5.838440    0.414027    0.901152
H      5.097381    1.618343    1.997071
H      5.184134    2.012523    0.261824
H      3.623242   -0.908485   -0.578421
H      4.011096    0.715854   -1.200700
H      1.873639    1.425093   -1.278898
H      1.657605   -0.341448   -1.618446
H      0.684748    1.060397    2.218814
H      1.789789   -0.397733    2.088599
H      3.079353    1.660275    2.505866
H      2.494375    2.333602    0.936434
H      1.420399   -1.761588    0.242832
H      1.215633   -4.175823    0.092717
H     -1.015205   -5.169723   -0.337974
H     -3.021035   -3.717461   -0.613602
H     -5.417271   -0.735667   -0.883333
H     -6.354977    1.614922   -0.932529
H     -2.478344    3.157707   -0.193106
H     -0.763159    1.987232    0.045767
