48

C     -0.700415   -1.980717   -1.046121
C     -0.706530   -0.810731   -0.046831
C     -2.034913   -0.080875   -0.125917
C     -3.186747   -1.007776    0.206695
C     -4.491563   -0.324411    0.127860
C     -5.023842    0.307581    1.244957
C     -6.251626    0.950284    1.177585
C     -6.964063    0.970068   -0.006758
C     -6.427983    0.333845   -1.131522
C     -5.211824   -0.295877   -1.042698
N      0.343265    0.067746   -0.459250
C      0.674657    1.100146    0.465758
C      1.792391    1.934439   -0.164526
O      2.135196    2.937728    0.729311
C      2.909874    1.010901   -0.482803
C      3.181714    0.626995   -1.783613
C      4.219641   -0.226744   -2.027692
C      5.037454   -0.741030   -0.997534
O      6.062123   -1.596161   -1.332545
C      4.771594   -0.362450    0.299302
C      3.706138    0.509460    0.514910
C      5.565808   -0.844903    1.431552
N      5.204119   -0.388869    2.732273
O      6.536679   -1.626701    1.340379
H     -1.064779   -1.633627   -2.031781
H      0.338659   -2.338658   -1.196296
H     -1.289297   -2.832126   -0.637501
H     -0.553748   -1.193922    0.980090
H     -2.149800    0.415757   -1.086833
H     -2.015436    0.698629    0.663543
H     -3.108566   -1.864947   -0.483508
H     -3.096487   -1.417880    1.233708
H     -4.500875    0.312051    2.175760
H     -6.675484    1.449816    2.057078
H     -7.918458    1.464871   -0.072513
H     -6.950394    0.327298   -2.069969
H     -4.753355   -0.807635   -1.901085
H      1.135631   -0.412254   -0.889431
H     -0.187323    1.712216    0.725501
H      1.097994    0.698672    1.424587
H      1.371635    2.368662   -1.110680
H      1.771676    3.814801    0.481611
H      2.562896    1.012602   -2.591567
H      4.436705   -0.531539   -3.047769
H      6.732888   -2.059110   -0.799018
H      3.528642    0.786627    1.565073
H      5.069855    0.620342    2.890851
H      5.076274   -1.052595    3.509803
