26

O     -3.674752   -0.900522   -0.890971
C     -2.378971   -0.346454   -1.018810
C     -1.955530    0.031983    0.374506
O     -2.888380    0.956733    0.844783
C     -0.588784    0.625842    0.467362
O     -0.480310    1.796936   -0.300233
C      0.517041   -0.346639    0.183066
O      0.487629   -0.700027   -1.143095
C      1.854655    0.264946    0.507592
O      2.001217    1.389499   -0.304801
C      3.004307   -0.647077    0.231788
O      2.969998   -1.813549    0.987779
H     -3.571716   -1.630906   -0.204718
H     -2.463322    0.500685   -1.700675
H     -1.770698   -1.156060   -1.468851
H     -2.012923   -0.854740    1.014396
H     -2.822625    1.828772    0.392818
H     -0.486900    0.985175    1.536741
H     -0.899544    2.569503    0.124485
H      0.376566   -1.208972    0.862484
H      0.591070    0.109466   -1.689175
H      1.896170    0.550244    1.578134
H      2.918071    1.450926   -0.666484
H      3.934206   -0.112463    0.516496
H      3.111158   -0.861436   -0.866950
H      2.332368   -2.481867    0.632333
