54

C     -2.251812   -3.130945    0.834258
N     -2.820340   -2.073123    0.062627
C     -4.263703   -2.205853    0.070331
C     -2.455628   -0.754084    0.299993
C     -1.115484   -0.215875    0.051153
C      0.068057   -1.097961    0.221541
O     -0.169217   -2.170428   -0.689425
C      1.313119   -0.431785   -0.286112
C      2.568562   -1.156315   -0.118354
C      2.531915   -2.492978    0.061088
C      3.857676   -0.487338   -0.041617
C      5.056086   -1.151865   -0.162403
Cl     5.213734   -2.854782   -0.512308
C      6.277533   -0.454657   -0.082849
C      6.265904    0.906523    0.115671
C      5.072554    1.570562    0.230485
O      5.066681    2.933464    0.427989
C      3.876214    0.900562    0.152706
C      2.588094    1.565946    0.209257
C      1.421966    0.986759    0.036255
C      0.186053    1.799571    0.229029
O      0.167362    2.979772   -0.118717
C     -0.959928    1.048800    0.859098
O     -0.647870    0.724126    2.178306
C     -2.182056    1.916868    0.808157
O     -2.226290    2.948144    1.490810
C     -3.316900    1.553108   -0.040748
C     -4.226637    2.449738   -0.405657
N     -5.300238    2.018065   -1.231188
O     -4.092091    3.757822    0.030080
C     -3.388305    0.162397   -0.456612
O     -4.160913   -0.188519   -1.356337
O      2.591419    2.965916    0.473692
H     -3.077119   -3.642253    1.456441
H     -1.515004   -2.864020    1.583437
H     -1.947138   -3.989823    0.161972
H     -4.665322   -2.422252   -0.948239
H     -4.587110   -3.108300    0.670858
H     -4.783685   -1.357510    0.562914
H     -2.706978   -0.522883    1.398042
H     -1.088145    0.131060   -1.035041
H      0.268957   -1.428484    1.240245
H      0.200324   -1.974933   -1.572734
H      1.188291   -0.428507   -1.461656
H      1.582013   -3.036032    0.077905
H      3.400698   -3.031491    0.235615
H      7.206971   -0.970625   -0.173602
H      7.232721    1.409589    0.174910
H      5.919780    3.431676    0.486176
H     -1.028261   -0.117466    2.479155
H     -5.445960    2.476767   -2.156766
H     -5.962217    1.254626   -0.956761
H     -3.270833    4.284731   -0.219861
H      2.532499    3.584494   -0.328296
