30

C      3.978728   -1.031026    1.393937
C      3.139253   -0.190712    0.502554
C      3.616219    1.007809    0.023599
C      2.811278    1.757566   -0.798223
C      1.539757    1.313792   -1.139084
Cl     0.492255    2.250706   -2.185782
C      1.054066    0.119971   -0.666983
N     -0.240648   -0.344376   -1.005555
C     -1.359369   -0.008433   -0.204165
C     -1.173704    0.792320    0.930556
C     -2.219322    1.150626    1.744577
C     -3.489138    0.717227    1.447731
C     -3.678726   -0.064818    0.341778
C     -2.615258   -0.442802   -0.506203
C     -2.938841   -1.274545   -1.648706
O     -4.274887   -1.665209   -1.864383
O     -2.140723   -1.699644   -2.493783
C      1.863668   -0.621239    0.151984
Cl     1.275830   -2.152812    0.774272
H      3.858419   -2.119142    1.123101
H      3.663304   -0.852842    2.450482
H      5.050095   -0.742163    1.306514
H      4.624778    1.347407    0.301438
H      3.158636    2.694393   -1.184663
H     -0.291034   -0.925050   -1.853783
H     -0.157296    1.117434    1.135901
H     -2.047770    1.781179    2.631234
H     -4.310406    0.999970    2.089044
H     -4.692581   -0.418437    0.093538
H     -4.496581   -2.497150   -2.425161
