33

C      4.124535   -0.420348    1.740364
C      3.105438    0.088076    0.759305
C      3.528140    0.942303   -0.238277
C      2.576576    1.387639   -1.117324
C      1.241219    1.001572   -1.016957
C      0.839617    0.158362   -0.024055
N     -0.477634   -0.345409    0.124882
C     -1.637690    0.257235   -0.416448
C     -1.677404    1.654243   -0.598960
C     -2.837412    2.245823   -1.027529
C     -3.954811    1.488338   -1.276313
C     -3.916418    0.125523   -1.096863
C     -2.748214   -0.511865   -0.662036
C     -2.774236   -1.957867   -0.534661
O     -3.983192   -2.649724   -0.805058
O     -1.839310   -2.707346   -0.205895
C      1.810201   -0.294459    0.868954
C      1.409223   -1.218730    1.966440
H      3.892840    0.007046    2.722730
H      5.150100   -0.184159    1.395735
H      4.019221   -1.524292    1.757629
H      4.580626    1.224739   -0.288520
H      2.861639    2.053900   -1.909092
H      0.539859    1.350999   -1.767626
H     -0.600172   -1.208693    0.691534
H     -0.792305    2.252885   -0.353564
H     -2.836859    3.335861   -1.162076
H     -4.874692    1.954617   -1.615233
H     -4.791775   -0.499176   -1.286828
H     -3.988449   -3.645692   -0.986636
H      2.210141   -1.193894    2.730534
H      1.400917   -2.241925    1.542648
H      0.440281   -0.925583    2.416508
