28

F      4.941366    1.081437   -1.312930
C      4.602360   -0.010295   -0.541422
F      5.010355   -1.195981   -1.111502
F      5.222116    0.052977    0.708011
C      3.130935   -0.052770   -0.410078
C      2.520633    1.045155    0.182317
Cl     3.494164    2.404272    0.737304
N      1.184476    1.053910    0.324371
C      0.432327    0.001782   -0.105396
N     -0.990743    0.000784    0.043296
C     -1.572154    1.147763    0.716178
C     -3.010711    1.373349    0.339236
N     -3.755697    0.119534    0.426776
C     -3.247163   -0.823256   -0.521732
C     -1.781384   -1.080242   -0.451294
C      1.011286   -1.097940   -0.695363
C      2.379158   -1.128615   -0.851290
H     -1.438137    1.003781    1.811353
H     -1.011916    2.085538    0.465193
H     -3.466265    2.049975    1.088217
H     -3.040019    1.779613   -0.690410
H     -3.603295   -0.264498    1.378166
H     -3.765355   -1.797683   -0.343785
H     -3.537082   -0.519120   -1.549888
H     -1.437299   -1.314275   -1.498844
H     -1.577187   -1.996405    0.171575
H      0.435583   -1.936784   -1.039228
H      2.869649   -1.982006   -1.313410
