23

Cl    -0.710175   -0.485515   -2.898053
C     -1.682340   -0.244804   -1.464310
C     -2.963323    0.319789   -1.520721
C     -3.714318    0.501656   -0.381184
C     -3.166061    0.109507    0.826371
C     -1.896460   -0.450149    0.882897
Cl    -1.206896   -0.946026    2.422673
C     -1.147940   -0.631052   -0.255758
N      0.147399   -1.202744   -0.192637
C      1.338525   -0.440422   -0.020204
N      1.430464    0.818485   -0.249913
C      2.758515    1.304712    0.015274
C      3.334573    0.257725    0.939568
N      2.619440   -0.925109    0.435142
H     -3.358938    0.612314   -2.467229
H     -4.711584    0.938517   -0.404050
H     -3.762093    0.254952    1.722094
H      0.238206   -2.227419   -0.275643
H      2.730196    2.292311    0.543186
H      3.376779    1.387275   -0.899939
H      2.977176    0.511197    1.970544
H      4.416590    0.149416    0.865273
H      2.952264   -1.904619    0.406620
