44

C      6.133931   -0.179658   -2.726353
O      5.627020    0.334112   -1.548159
C      5.801530   -0.580938   -0.543455
C      5.288072   -0.135076    0.792077
C      3.851007    0.158043    0.806272
C      2.957084   -0.846562    1.106902
C      1.590628   -0.644635    1.138920
C      1.098423    0.605625    0.860795
O     -0.256849    0.825122    0.887923
C     -1.098305   -0.258643    1.206577
C     -2.557733    0.126624    1.196523
O     -2.782609    1.122732    2.117455
C     -2.988851    0.615120   -0.160686
N     -4.372535    0.956813   -0.189944
C     -5.268091   -0.155361   -0.054195
C     -6.692245    0.388999   -0.129603
C     -5.115282   -1.199101   -1.119457
C      1.983075    1.620853    0.557903
C      3.355384    1.412741    0.527123
H      6.002255    0.555326   -3.571311
H      5.563341   -1.087229   -3.030254
H      7.207286   -0.394889   -2.585063
H      6.919727   -0.701538   -0.422171
H      5.436898   -1.590209   -0.784186
H      5.472742   -0.993747    1.500748
H      5.866445    0.705861    1.207088
H      3.313404   -1.843744    1.330455
H      0.904436   -1.459097    1.380487
H     -0.920483   -1.038521    0.416821
H     -0.885395   -0.723337    2.176599
H     -3.133423   -0.806020    1.411339
H     -2.410275    0.824554    2.986971
H     -2.401673    1.524249   -0.396579
H     -2.743308   -0.127967   -0.935440
H     -4.643150    1.745042    0.405349
H     -5.192139   -0.657624    0.933745
H     -7.351528   -0.087318    0.625268
H     -6.731936    1.475821    0.075148
H     -7.119975    0.188555   -1.134589
H     -6.108526   -1.544361   -1.521978
H     -4.654905   -2.130361   -0.685916
H     -4.511161   -0.858981   -1.962660
H      1.589457    2.602197    0.339754
H      3.978233    2.256528    0.283214
