14

N      2.538785    0.222279    0.860132
C      1.753051   -0.149534   -0.254525
O      2.318811   -0.540795   -1.298951
C      0.300929   -0.098006   -0.244115
C     -0.462116   -0.461292   -1.332681
N     -1.804283   -0.397386   -1.277510
C     -2.471481    0.014717   -0.184186
C     -1.708056    0.378327    0.905336
N     -0.367358    0.317233    0.857902
H      2.078630    0.797979    1.627148
H      3.536790   -0.060861    0.924200
H      0.054334   -0.798022   -2.228693
H     -3.558837    0.062431   -0.150873
H     -2.209199    0.712930    1.796815
