27

Br     0.000000    0.000000    0.000000
C     -3.896266   -1.035051   -0.386170
N     -2.953273   -0.222112    0.336628
C     -3.274587    0.535911    1.519309
C     -1.601674   -0.153036   -0.140611
O     -1.235647   -0.785338   -1.168523
O     -0.629571    0.602915    0.491109
C      0.661990    0.639879   -0.005011
C      0.988594    1.611814   -0.933821
C      2.286015    1.616146   -1.404824
C      3.188945    0.679519   -0.948417
N      2.862952   -0.262176   -0.045068
C      3.824603   -1.240011    0.424580
C      1.607329   -0.288273    0.429046
H     -3.819817   -2.068984    0.029963
H     -3.657081   -1.094674   -1.474210
H     -4.922529   -0.650645   -0.242927
H     -3.165408    1.639308    1.336475
H     -2.615815    0.286404    2.367781
H     -4.355781    0.346781    1.751322
H      0.245016    2.339979   -1.273673
H      2.588830    2.368705   -2.141999
H      4.206928    0.675484   -1.311794
H      4.770736   -1.126688   -0.173547
H      3.458396   -2.280648    0.321770
H      4.103395   -1.093949    1.486562
H      1.333718   -1.041262    1.156050
