46

C     -1.534731   -0.294694   -0.329348
C     -0.299020    0.088726    0.179216
C      0.695376   -0.839764    0.411696
N      1.963823   -0.426486    0.903874
C      3.069332   -1.273695    1.268157
C      4.296837   -0.974514    0.397387
N      4.436591    0.436923    0.305954
C      5.742650    0.905857   -0.027460
C      3.753970    1.184198    1.304651
C      2.240883    1.021754    1.041549
C      0.400699   -2.170401    0.114769
F      1.301656   -3.134752    0.293717
C     -0.832344   -2.550482   -0.390733
C     -1.814811   -1.617464   -0.619027
C     -3.057579   -2.012431   -1.131747
C     -4.042014   -1.084435   -1.363554
C     -5.350224   -1.473171   -1.898879
O     -5.582956   -2.809350   -2.171560
O     -6.260350   -0.661741   -2.119787
C     -3.726910    0.217094   -1.065331
N     -2.509274    0.596856   -0.564105
C     -2.249177    1.985901   -0.304281
C     -3.512402    2.799909   -0.175077
C     -1.317782    2.138614    0.836706
O     -0.103212    1.460627    0.451867
O     -3.241761   -3.218090   -1.368900
H      3.361891   -0.934374    2.311848
H      2.866992   -2.323438    1.381956
H      4.144040   -1.382163   -0.630476
H      5.181389   -1.488549    0.816920
H      6.063869    0.364836   -0.955706
H      6.480613    0.866590    0.772653
H      5.635769    1.977860   -0.352091
H      3.992092    0.950077    2.351557
H      4.034237    2.255350    1.154491
H      2.077418    1.545647    0.078774
H      1.696963    1.484116    1.856547
H     -1.071736   -3.577477   -0.623451
H     -6.510933   -3.231707   -2.132044
H     -4.474740    0.976583   -1.234136
H     -1.726570    2.401141   -1.211257
H     -3.210485    3.794738    0.220029
H     -3.922689    2.955723   -1.178763
H     -4.227907    2.376763    0.549680
H     -1.093494    3.186509    1.105422
H     -1.763990    1.675873    1.738294
