30

C     -2.434722    2.459606    0.254157
C     -1.095310    1.740346    0.233436
C     -1.264595    0.289453    0.045391
N     -2.477225   -0.302355   -0.006769
C     -2.638794   -1.616018   -0.195016
N     -3.948675   -2.143817   -0.224432
N     -1.552313   -2.376632   -0.337706
C     -0.299245   -1.883434   -0.299873
N      0.843420   -2.721629   -0.452631
C     -0.159987   -0.503168   -0.100647
C      1.215970   -0.012208   -0.016138
C      1.990954   -0.322231    1.106927
C      3.293747    0.102993    1.260173
C      3.827449    0.866732    0.243109
Cl     5.485134    1.403055    0.434025
C      3.069087    1.179357   -0.870706
C      1.748161    0.738275   -1.007039
H     -3.231516    1.723842    0.510850
H     -2.458041    3.266164    1.012462
H     -2.613665    2.948196   -0.740993
H     -0.598459    1.991745    1.188549
H     -0.495211    2.178853   -0.616357
H     -4.397577   -2.412884   -1.112576
H     -4.438270   -2.243719    0.715932
H      0.720248   -3.686758   -0.788273
H      1.804658   -2.381486   -0.232744
H      1.503271   -0.925874    1.861271
H      3.861478   -0.164468    2.150518
H      3.539104    1.782663   -1.640504
H      1.200921    1.025402   -1.908629
