48

C      6.565324    0.626188   -1.970990
O      5.172814    0.546425   -1.862182
C      4.519718    0.238339   -0.683933
C      5.278924   -0.002358    0.438109
C      4.662398   -0.318061    1.654899
C      3.281555   -0.390459    1.737079
N      2.764865   -0.691631    2.949934
C      1.434190   -0.760372    3.066357
C      0.626851   -0.530070    1.977231
C      1.109840   -0.221760    0.724548
C      0.378186    0.021131   -0.465083
O      0.821152   -0.932368   -1.431497
C     -1.065241    0.094924   -0.629338
C     -1.722153    1.379226   -0.146362
C     -3.231741    1.036353   -0.208942
C     -3.550919    0.304749   -1.478783
C     -2.847680   -1.032836   -1.637177
N     -1.877175   -1.056626   -0.503168
C     -2.774621   -1.188722    0.603800
C     -3.430149    0.131486    0.966436
C     -4.828019    0.047602    1.372256
C     -5.812198    0.711150    0.826126
C      2.505816   -0.152061    0.619461
C      3.149706    0.160293   -0.576275
H      7.051849    1.182912   -1.146002
H      7.019579   -0.400215   -1.971900
H      6.896281    1.109465   -2.916650
H      6.356403    0.048281    0.396144
H      5.291487   -0.495936    2.495470
H      0.989851   -0.998907    4.024217
H     -0.450025   -0.575792    2.083117
H      0.785365    0.993414   -0.910152
H      0.584757   -1.851527   -1.119852
H     -1.132665    0.328816   -1.771086
H     -1.478774    2.263009   -0.747454
H     -1.517802    1.602245    0.905726
H     -3.815670    1.973532   -0.188243
H     -3.385345    0.944341   -2.382136
H     -4.625318    0.069524   -1.493588
H     -3.518907   -1.887434   -1.540053
H     -2.274643   -1.023724   -2.596484
H     -3.618800   -1.853072    0.266801
H     -2.387487   -1.739567    1.480490
H     -2.881608    0.567883    1.877332
H     -5.097220   -0.642051    2.225491
H     -6.851893    0.593403    1.189328
H     -5.684278    1.401952    0.027046
H      2.613418    0.368905   -1.479409
