37

N     -5.304948   -1.129573   -0.871339
C     -3.924821   -1.019789   -0.408505
C     -3.050724   -0.416919   -1.480167
C     -1.661352   -0.282963   -1.047128
C     -0.716342   -1.296858   -1.194294
C      0.594565   -1.124504   -0.775818
C      1.009584    0.062090   -0.196568
C      0.056790    1.059438   -0.058129
C     -1.241269    0.914675   -0.463175
N      2.357587    0.295081    0.233295
C      3.171096    1.236146   -0.479316
C      3.474459    2.468794    0.367606
Cl     4.472598    3.630579   -0.512899
C      2.873965   -0.424183    1.372005
C      3.949764   -1.388108    0.881926
Cl     4.644625   -2.325204    2.226662
C     -3.896053   -0.160781    0.779296
O     -2.793571    0.010454    1.577553
O     -4.961969    0.469872    1.099786
H     -5.849378   -1.439932   -0.011034
H     -5.671534   -0.145710   -1.051339
H     -3.575769   -2.048645   -0.214951
H     -3.095601   -1.071300   -2.375863
H     -3.504182    0.549034   -1.806372
H     -1.039762   -2.240506   -1.652338
H      1.283404   -1.922739   -0.906412
H      0.343777    2.017647    0.394739
H     -1.985061    1.721967   -0.356502
H      2.625289    1.617172   -1.375065
H      4.133657    0.766090   -0.754873
H      4.032455    2.148892    1.295284
H      2.551714    2.937952    0.746641
H      3.254829    0.225317    2.168329
H      2.068962   -1.059608    1.834524
H      3.458749   -2.066920    0.157302
H      4.738420   -0.845636    0.315900
H     -2.823952    0.278680    2.541240
