49

C      6.737481   -1.330416   -0.476855
O      5.944860   -0.260651   -0.064146
C      4.540817   -0.261712   -0.203146
C      3.889848   -1.341190   -0.762746
C      2.495036   -1.318523   -0.889814
C      1.761062   -0.237934   -0.466150
C      0.319809   -0.248256   -0.613552
C     -0.308909   -1.559464   -0.258666
C     -1.804662   -1.547944   -0.434774
C     -2.412243   -0.407122    0.302679
C     -2.312549   -0.540178    1.780392
C     -1.767833    0.870203   -0.232848
C     -2.659544    1.908750    0.315360
C     -4.018827    1.362603   -0.081595
C     -3.852091   -0.142883   -0.064285
O     -4.741819   -0.643944    0.882984
C     -4.180590   -0.698505   -1.376948
C     -4.462425   -1.135715   -2.444669
C     -0.356910    0.882708    0.177698
C      0.385636    2.158980   -0.116706
C      1.724279    2.056377    0.583860
C      2.428382    0.825971    0.087945
C      3.798449    0.816869    0.218738
H      7.804686   -0.975381   -0.530701
H      6.437021   -1.735797   -1.477801
H      6.671850   -2.168030    0.253087
H      4.485732   -2.174453   -1.086259
H      2.068924   -2.203897   -1.338704
H      0.044740   -0.039746   -1.686447
H     -0.025908   -1.882202    0.761277
H      0.079150   -2.338156   -0.947312
H     -2.196799   -2.497118   -0.011533
H     -2.076961   -1.529753   -1.506248
H     -1.732830   -1.440550    2.080668
H     -1.880007    0.311559    2.307435
H     -3.335109   -0.694587    2.234984
H     -1.859185    0.849423   -1.326727
H     -2.667046    1.975076    1.423793
H     -2.486027    2.934702   -0.065720
H     -4.207706    1.723204   -1.128062
H     -4.828208    1.704259    0.582146
H     -5.081828    0.070082    1.467783
H     -4.706600   -1.539232   -3.393587
H     -0.174931    0.638290    1.239519
H      0.490338    2.360592   -1.187670
H     -0.162656    2.992409    0.394440
H      1.504415    1.858421    1.653432
H      2.358631    2.936651    0.427317
H      4.329058    1.656213    0.656254
