55

C      2.560650    1.600580   -1.326932
N      1.851575    1.182988   -0.099975
C      2.595950    1.249245    1.108866
C      3.822462    0.378779    1.055243
C      3.740162   -0.948205    1.395287
N      4.879913   -1.680313    1.329192
C      6.025183   -1.104678    0.944204
N      7.164567   -1.800736    0.869485
C      8.305472   -1.193749    0.478002
N      9.518964   -1.915076    0.393013
N      8.349125    0.120955    0.149449
C      7.230044    0.871479    0.206528
N      7.230319    2.243377   -0.124854
C      6.066863    0.249439    0.606357
N      4.960242    0.976099    0.666647
C      0.507520    0.753622   -0.203269
C     -0.268122    0.346223    0.842848
C     -1.602052   -0.072514    0.688067
C     -2.176327   -0.084112   -0.547527
C     -1.411728    0.321932   -1.610193
C     -0.103181    0.734216   -1.468478
C     -3.545875   -0.498153   -0.781905
O     -3.914119   -0.671022   -1.989749
N     -4.470128   -0.712366    0.267903
C     -5.840360   -1.097836    0.186059
C     -6.523604   -0.832269   -1.141740
C     -6.577358    0.622823   -1.435155
C     -7.424357    1.304929   -0.397742
O     -8.345543    0.604693    0.322645
O     -7.293303    2.536736   -0.183893
C     -6.180797   -2.382350    0.795500
O     -7.465120   -2.905003    0.806227
O     -5.261250   -3.054855    1.342135
H      2.481586    0.691088   -1.993555
H      1.993649    2.391133   -1.846961
H      3.614385    1.806611   -1.152765
H      2.023229    0.892793    1.964351
H      2.913835    2.297817    1.366441
H      2.800068   -1.405942    1.707743
H     10.233810   -1.784164    1.134798
H      9.709098   -2.567533   -0.389470
H      6.542565    2.628072   -0.802584
H      7.941237    2.869575    0.328325
H      0.158298    0.343595    1.841639
H     -2.100045   -0.370750    1.593025
H     -1.801011    0.341274   -2.637084
H      0.481545    1.051824   -2.330745
H     -4.037960   -0.546779    1.241664
H     -6.360604   -0.282712    0.846042
H     -6.058097   -1.375637   -1.986829
H     -7.555924   -1.267592   -1.039374
H     -7.140317    0.780754   -2.395103
H     -5.641814    1.151655   -1.543643
H     -9.008487    1.091579    0.926092
H     -7.594837   -3.881543    0.976792
