31

C     -3.350133   -1.273954    0.302221
N     -2.557496   -0.578435   -0.639814
C     -2.382304    0.825037   -0.393835
C     -3.664935    1.550518   -0.151793
Cl    -4.728016    1.395652   -1.566812
N     -1.447276    1.129867    0.651780
C     -0.107848    0.673158    0.592232
C      0.928965    1.313217    1.255230
C      2.228255    0.854333    1.185846
Cl     3.554505    1.647631    2.015762
C      2.521036   -0.268325    0.442556
C      1.473780   -0.901201   -0.217376
C      0.189029   -0.445831   -0.147601
S     -1.068044   -1.325664   -1.024951
O     -0.839147   -1.149958   -2.500099
O     -1.017608   -2.763278   -0.619320
S      4.157235   -0.894246    0.320824
N      5.228803    0.267922   -0.364387
O      4.644094   -1.328122    1.689777
O      4.150533   -2.103227   -0.551296
H     -2.853813   -2.211455    0.676566
H     -3.660956   -0.695522    1.182564
H     -4.266660   -1.656358   -0.237554
H     -1.942499    1.255432   -1.342678
H     -4.160431    1.301718    0.786755
H     -3.406180    2.648466   -0.083316
H     -1.721891    1.693186    1.481878
H      0.710468    2.194415    1.841014
H      1.736349   -1.782102   -0.794059
H      5.922523   -0.207632   -0.999031
H      5.729661    0.834760    0.343862
