40

C     -3.774571   -1.951163    0.356405
N     -2.703139   -1.003608    0.603668
C     -2.849161    0.098417   -0.328712
C     -1.574810    0.416815   -0.985148
N     -0.532680    0.460876   -0.008251
C     -0.321426   -0.780070    0.743895
C     -1.446611   -1.715176    0.480514
C      1.030987   -1.231549    0.509770
C      1.061639   -2.589228    0.196063
C      2.287641   -3.162581   -0.048974
C      3.463328   -2.446416    0.006173
C      3.384166   -1.106050    0.320767
C      2.178423   -0.464044    0.579599
C      2.489119    0.952020    0.883999
C      1.432822    1.884602    0.470906
C      1.879645    3.186474    0.488920
C      1.039856    4.237373    0.131269
C     -0.275221    4.023883   -0.256619
C     -0.715061    2.724142   -0.272579
C      0.123436    1.696270    0.082403
H     -3.926472   -2.647339    1.200359
H     -3.443353   -2.563455   -0.532935
H     -4.718290   -1.476756    0.071512
H     -3.613968   -0.158910   -1.120636
H     -3.328085    0.914843    0.253206
H     -1.552423    1.067572   -1.850059
H     -1.328214   -0.551671   -1.546052
H     -0.381920   -0.571340    1.861130
H     -1.452355   -2.483322    1.283000
H     -1.479616   -2.234952   -0.468017
H      0.148535   -3.174918    0.152335
H      2.268268   -4.235741   -0.293098
H      4.416087   -2.941394   -0.195661
H      4.325865   -0.550237    0.360976
H      2.789915    1.086895    1.952255
H      3.385711    1.223367    0.288515
H      2.887606    3.450083    0.777026
H      1.430718    5.260657    0.157677
H     -0.887891    4.870591   -0.524950
H     -1.718502    2.485042   -0.558279
