98

C      2.465715   -1.093398   -1.854907
C      2.014822    0.329174   -2.212721
C      2.778637    0.837535   -3.414790
C      2.044951    1.235756   -1.035649
N      3.292141    1.423471   -0.397173
C      3.900162    0.579733    0.586406
O      3.325644   -0.453943    0.947198
N      5.170413    0.948848    1.142796
C      5.852137    2.165568    0.751819
C      5.795291    0.085851    2.092198
C      6.836414   -0.799513    1.422538
C      6.522086   -2.025784    0.910637
S      8.043625   -2.542840    0.298205
C      8.969420   -1.175030    0.731226
N      8.070504   -0.402294    1.317223
C     10.437453   -0.887988    0.516244
C     11.324131   -1.959140    1.051843
C     10.696179   -0.710641   -0.955125
C      0.895862    0.925001   -0.143487
O      1.140928    0.809824    1.085645
N     -0.432755    0.755791   -0.555417
C     -1.455456    0.462811    0.446515
C     -2.452719   -0.528459   -0.078641
C     -3.486970   -0.838232    0.938083
O     -2.991584   -1.396712    2.099492
C     -4.653907   -1.662019    0.436769
C     -4.394399   -3.132050    0.350396
C     -5.646685   -3.813530   -0.159783
C     -6.633943   -4.249966    0.695304
C     -7.784726   -4.870670    0.227341
C     -7.972317   -5.067973   -1.114006
C     -6.999435   -4.640160   -1.985773
C     -5.853119   -4.021519   -1.508658
N     -5.192160   -1.106011   -0.769111
C     -6.445002   -0.435114   -0.734841
O     -7.078697   -0.329711    0.352684
O     -7.029776    0.125010   -1.852215
C     -8.263402    0.788912   -1.807411
C     -8.227338    1.983443   -0.883965
S     -9.495543    2.978808   -0.334553
C     -8.578589    4.047913    0.628441
N     -7.345825    3.585960    0.478423
C     -7.137853    2.548539   -0.277166
C     -2.188125    1.792299    0.758421
C     -1.189883    2.809096    1.247363
C     -0.602185    3.613437    0.297590
C      0.332937    4.600569    0.610275
C      0.644629    4.733937    1.933343
C      0.085648    3.955547    2.918344
C     -0.850724    2.973232    2.568568
H      1.844169   -1.535249   -1.062993
H      3.550967   -1.143654   -1.683130
H      2.294371   -1.760935   -2.752670
H      0.954690    0.203416   -2.534398
H      3.346060   -0.035989   -3.829995
H      2.085601    1.275890   -4.159150
H      3.500904    1.632860   -3.164136
H      1.747913    2.281046   -1.429864
H      3.905367    2.276559   -0.627893
H      5.238079    3.069468    0.961861
H      6.802922    2.270525    1.306665
H      6.147111    2.159821   -0.340354
H      6.281448    0.750227    2.851196
H      5.140463   -0.587722    2.651401
H      5.544031   -2.537859    0.901258
H     10.627228    0.075370    1.079662
H     11.497514   -1.875572    2.151841
H     10.987453   -2.965196    0.734623
H     12.325386   -1.820102    0.586603
H     10.967423   -1.694425   -1.388582
H      9.830525   -0.256415   -1.477488
H     11.620754   -0.074816   -1.089066
H     -0.692215    0.838881   -1.557136
H     -1.057867    0.138457    1.405285
H     -1.963344   -1.434240   -0.505100
H     -2.919542   -0.037237   -0.988868
H     -3.946157    0.149407    1.249204
H     -3.697938   -1.964711    2.496461
H     -5.440039   -1.539267    1.242453
H     -3.622479   -3.309559   -0.429518
H     -4.176846   -3.604382    1.307615
H     -6.533032   -4.117665    1.759774
H     -8.564048   -5.215567    0.887475
H     -8.879447   -5.555990   -1.491586
H     -7.163102   -4.806014   -3.043799
H     -5.123938   -3.706717   -2.246690
H     -4.691381   -1.173369   -1.703202
H     -9.063432    0.123113   -1.383995
H     -8.603698    1.131755   -2.788654
H     -8.895880    4.916724    1.236562
H     -6.116073    2.135218   -0.426947
H     -2.867356    1.641750    1.621906
H     -2.744288    2.165194   -0.106805
H     -0.863526    3.485514   -0.736743
H      0.745081    5.190342   -0.194843
H      1.364091    5.480084    2.238674
H      0.339148    4.071067    3.961440
H     -1.319679    2.336597    3.305730
