15

F      3.212712   -0.168919   -0.195875
C      1.963963   -0.576682    0.259138
O      1.023775    0.231626   -0.320275
C     -0.274590   -0.007471    0.000058
C     -1.135794   -0.432589   -1.161657
F     -2.419769   -0.646655   -0.729318
F     -1.184998    0.506097   -2.164115
F     -0.654442   -1.627240   -1.653033
C     -0.892472    1.145531    0.768524
F     -0.874449    2.314601    0.059375
F     -2.173518    0.842466    1.136061
F     -0.125492    1.343254    1.906180
H      1.879452   -1.641328    0.018244
H      1.940696   -0.417541    1.366633
H     -0.285074   -0.865150    0.710061
