29

Na     0.000000    0.000000    0.000000
C     -4.527087   -0.978455    1.137710
C     -3.158290   -0.881848    0.529214
O     -2.526696   -1.911596    0.145038
N     -2.510286    0.367353    0.356744
C     -1.214459    0.498548   -0.215859
C     -0.097122    0.458571    0.584679
I     -0.220242    0.191557    2.662778
C      1.178355    0.592191    0.040393
N      2.322875    0.550479    0.868283
C      2.950484   -0.696536    1.099192
C      4.155097   -0.851060    1.952454
O      2.476275   -1.744751    0.558653
C      1.351782    0.767591   -1.314231
I      3.292105    0.969453   -2.119137
C      0.249904    0.808417   -2.117215
C      0.455037    0.998526   -3.567398
O      0.388424    2.292268   -4.078688
O      0.685468    0.063083   -4.359616
C     -1.014283    0.676503   -1.581064
I     -2.679496    0.742418   -2.835195
H     -5.241486   -0.464740    0.467229
H     -4.835207   -2.015406    1.266446
H     -4.567137   -0.478275    2.124958
H     -3.031341    1.237979    0.675428
H      2.679843    1.429845    1.289595
H      4.651342    0.115467    2.162002
H      4.907151   -1.458940    1.398846
H      3.878991   -1.407669    2.868760
