46

C      3.743512   -1.160985   -2.545883
C      2.482924   -0.529652   -2.005945
C      1.327109   -1.456967   -1.974190
O      0.201068   -0.654167   -1.542184
C      0.331749   -0.021667   -0.280511
C     -0.768426    0.204059    0.503716
N     -2.065729   -0.207050    0.028719
C     -2.585700   -1.529885    0.318201
C     -3.929503   -1.338556    0.990300
N     -4.802474   -0.502972    0.188260
C     -6.046454   -0.351788    0.917062
C     -4.225969    0.803062   -0.056211
C     -2.907507    0.675899   -0.755879
C     -0.612853    0.820481    1.732798
F     -1.721762    1.029152    2.484083
C      0.645699    1.190716    2.134788
C      1.731175    0.948711    1.319919
C      3.007842    1.321012    1.728983
O      3.152834    1.878125    2.841160
C      4.073608    1.065093    0.897349
C      3.928253    0.456118   -0.322910
N      2.685934    0.092384   -0.724491
C      1.628746    0.330325    0.069545
C      5.435260    1.456260    1.322351
O      6.530913    1.215778    0.514550
O      5.606291    2.014837    2.430688
H      4.390292   -0.374767   -2.931241
H      3.422927   -1.796860   -3.415632
H      4.197216   -1.840021   -1.817508
H      2.220257    0.306583   -2.718841
H      1.062352   -1.861084   -2.955511
H      1.486107   -2.297267   -1.274180
H     -1.927505   -2.070076    1.031630
H     -2.677005   -2.054398   -0.650363
H     -4.459008   -2.293169    1.157292
H     -3.730173   -0.778687    1.934478
H     -5.851956    0.296355    1.795066
H     -6.346211   -1.369952    1.301241
H     -6.849003    0.069108    0.275108
H     -4.167251    1.347841    0.896584
H     -4.939981    1.348291   -0.707565
H     -2.449031    1.678938   -0.878409
H     -3.088767    0.176462   -1.731894
H      0.790558    1.669821    3.084316
H      4.734339    0.239533   -0.999862
H      7.335303    1.855025    0.560107
