38

C     -4.343219    1.379653    0.069992
C     -4.186479   -0.003568    0.676064
C     -5.517733   -0.722377    0.421158
N     -3.184992   -0.770200    0.004503
C     -1.850756   -0.183297    0.098852
C     -0.928438   -1.099894   -0.650188
O     -0.975597   -2.356567   -0.049573
C      0.434692   -0.610650   -0.794365
C      0.855350    0.663241   -0.495036
C      2.167797    1.038814   -0.663414
C      3.123418    0.167556   -1.136427
N      4.487111    0.503587   -1.328112
S      5.326251    1.373507   -0.127916
C      5.376305    0.442082    1.404219
O      6.768151    1.564043   -0.548645
O      4.677781    2.695242    0.116177
C      2.706771   -1.131587   -1.444189
C      1.390632   -1.499417   -1.272770
H     -3.578736    2.048778    0.511920
H     -4.337536    1.370643   -1.027026
H     -5.336081    1.760282    0.388640
H     -3.978950    0.090066    1.743233
H     -5.629533   -1.556919    1.166712
H     -6.372462   -0.017306    0.447934
H     -5.489658   -1.162713   -0.606789
H     -3.417890   -1.079418   -0.938829
H     -1.920374    0.824164   -0.328135
H     -1.526484   -0.094475    1.154411
H     -1.360994   -1.213101   -1.681349
H     -1.745722   -2.418138    0.559650
H      0.108425    1.345379   -0.124587
H      2.498911    2.058589   -0.423082
H      4.959852    0.215369   -2.199555
H      4.396699   -0.003928    1.643158
H      6.158089   -0.355955    1.262026
H      5.710860    1.095580    2.217868
H      3.442783   -1.830132   -1.817217
H      1.091754   -2.526935   -1.522653
