27

N     -4.041091    0.100807    1.924917
C     -3.029722   -0.068140    0.935272
C     -3.007937    0.778053   -0.155161
C     -2.059690    0.657943   -1.131066
C     -1.091653   -0.337515   -1.029262
C     -1.131876   -1.168643    0.063884
C     -2.076051   -1.052883    1.040538
S      0.108957   -0.472800   -2.295878
O     -0.555993   -0.036628   -3.574386
O      0.568610   -1.900548   -2.443261
N      1.439489    0.557259   -1.949585
C      2.260422    0.428867   -0.798654
N      3.291777    1.238547   -0.542459
C      4.085642    1.149455    0.525404
C      3.847202    0.155401    1.452378
C      2.783164   -0.686958    1.196642
N      2.019545   -0.542835    0.098062
H     -4.877361   -0.503471    1.865325
H     -3.873937    0.826569    2.650722
H     -3.781595    1.552726   -0.210227
H     -2.023053    1.313001   -1.998690
H     -0.385488   -1.944362    0.146976
H     -2.070436   -1.719996    1.873130
H      1.651108    1.318938   -2.628169
H      4.912531    1.816589    0.708825
H      4.449202    0.021980    2.342641
H      2.588233   -1.481357    1.932083
