31

C      4.089949    1.905263   -0.185015
C      2.902173    1.227832    0.397883
N      1.842526    1.814770    1.021638
O      0.999050    0.927089    1.400162
C      1.395453   -0.289266    1.080022
N      0.723742   -1.516454    1.336158
S     -0.402561   -2.166772    0.185509
O     -1.004242   -3.434410    0.666030
O      0.271612   -2.429193   -1.118894
C     -1.702659   -0.993410    0.020818
C     -1.621038   -0.005238   -0.919980
C     -2.614684    0.931524   -1.081739
C     -3.714238    0.846651   -0.256174
N     -4.742697    1.805614   -0.414130
C     -3.805595   -0.141157    0.690937
C     -2.805575   -1.063095    0.835075
C      2.606730   -0.120461    0.440135
C      3.489345   -1.165581   -0.127877
H      4.962742    1.858006    0.516001
H      4.420453    1.438907   -1.129671
H      3.863484    2.986107   -0.306144
H      0.884517   -2.060756    2.215717
H     -0.737116    0.050290   -1.572252
H     -2.561913    1.717076   -1.821373
H     -5.156284    2.238896    0.440909
H     -5.058054    2.051973   -1.382233
H     -4.670195   -0.232502    1.362150
H     -2.909111   -1.844417    1.605528
H      3.924827   -0.859921   -1.096620
H      2.873658   -2.071132   -0.303831
H      4.255702   -1.406234    0.636208
