57

C     -3.516032    2.896600   -0.434005
C     -2.589672    1.727800   -0.646114
C     -1.324543    1.920736    0.212281
C     -0.415274    0.729063   -0.170307
C      0.880781    0.892564    0.503848
C      1.699636    2.080017    0.115019
C      3.141948    1.575355    0.253284
C      3.023891    0.210107    0.898244
O      2.725754    0.442128    2.278550
C      4.228579   -0.585156    0.790488
O      4.734755   -0.974850    1.864365
C      4.947037   -0.997881   -0.420874
O      6.148930   -1.667430   -0.064145
C      1.772495   -0.303111    0.222074
C      2.016130   -0.541850   -1.210327
C      1.164643   -1.473019    0.896085
C     -0.234589   -1.713682    0.413751
O     -0.237188   -2.477593   -0.764780
C     -1.083118   -0.504397    0.366099
C     -2.391752   -0.759034   -0.352009
C     -2.159214   -1.016095   -1.835851
C     -3.028281   -1.982890    0.169654
C     -4.202817   -2.004327    0.758201
C     -4.932826   -0.760037    0.917145
O     -6.074045   -0.765696    1.483721
C     -4.341167    0.472537    0.422905
C     -3.183702    0.466372   -0.150584
H     -3.055697    3.771193   -0.943474
H     -4.471662    2.702033   -0.937036
H     -3.649772    3.110685    0.629556
H     -2.285865    1.607649   -1.689604
H     -1.553790    1.901436    1.277558
H     -0.805430    2.817590   -0.146695
H     -0.395771    0.798872   -1.278248
H      0.712055    0.919358    1.599753
H      1.494042    2.487188   -0.872018
H      1.566797    2.881422    0.870502
H      3.723001    2.244698    0.935925
H      3.578441    1.589661   -0.737173
H      3.420192    1.033299    2.650868
H      4.428642   -1.747696   -1.052357
H      5.203432   -0.126383   -1.059448
H      6.903324   -1.311856   -0.625501
H      2.118149   -1.659096   -1.351790
H      1.156348   -0.291682   -1.877933
H      2.909570   -0.076209   -1.633146
H      1.212675   -1.343855    1.999750
H      1.768340   -2.386952    0.645007
H     -0.700565   -2.406997    1.180661
H     -0.111761   -3.427229   -0.606508
H     -1.378012   -0.257593    1.429191
H     -2.879870   -0.346983   -2.384700
H     -2.444880   -2.042594   -2.143072
H     -1.139699   -0.855681   -2.167219
H     -2.519163   -2.931306    0.074695
H     -4.642579   -2.939711    1.131103
H     -4.930851    1.400509    0.564631
