15

O      2.504751    0.117996    0.872868
C      1.849033    0.043636   -0.353873
C      0.371903    0.119083   -0.209374
C     -0.421091   -0.997157   -0.039927
C     -1.792987   -0.863618    0.089201
C     -2.401182    0.382822    0.052132
N     -1.607933    1.456184   -0.113934
C     -0.270843    1.338517   -0.240777
H      3.053343   -0.706520    1.055902
H      2.122757   -0.862381   -0.933061
H      2.159840    0.958401   -0.930761
H      0.038992   -1.993547   -0.007615
H     -2.446283   -1.737354    0.225170
H     -3.487064    0.496660    0.153694
H      0.326763    2.247279   -0.373826
