22

N     -3.446359   -0.405045   -0.407459
C     -2.030792   -0.277168   -0.555251
C     -1.272563   -0.440098    0.742619
O     -1.697542    0.539764    1.637354
C      0.167347   -0.242203    0.421725
C      1.037804   -1.314492    0.406024
C      2.374400   -1.118201    0.106274
C      2.899587    0.128924   -0.186508
C      2.026165    1.189548   -0.168461
O      2.468886    2.455139   -0.447321
C      0.696866    0.993137    0.129829
H     -3.888600    0.112338   -1.220913
H     -3.746994   -1.400948   -0.493527
H     -1.660022   -1.064415   -1.249561
H     -1.742858    0.700696   -1.006050
H     -1.430131   -1.459339    1.111425
H     -0.884391    0.944518    2.079808
H      0.640389   -2.300845    0.633955
H      3.049100   -1.978271    0.098439
H      3.952735    0.230445   -0.414761
H      2.496355    2.876082   -1.365105
H     -0.009380    1.830433    0.147466
