47

C     -0.085903   -1.886491   -1.235040
C     -0.240592   -1.175282    0.106922
C     -1.671034   -1.011189    0.487944
C     -2.528325   -0.239622   -0.466196
C     -3.909034   -0.234500    0.142014
C     -4.313985    0.763048    0.998846
C     -5.575774    0.786907    1.568958
C     -6.458998   -0.237845    1.258887
C     -6.085309   -1.250261    0.405598
C     -4.825132   -1.239357   -0.140161
N      0.656389   -0.135143    0.358443
C      0.721512    1.034022   -0.402834
C      1.068145    0.870377   -1.869113
C      1.895911    1.857835    0.201127
O      1.661302    2.139015    1.537679
C      3.180060    1.166831    0.072621
C      3.598240    0.117772    0.865233
C      4.822756   -0.510551    0.711517
C      5.683245   -0.090412   -0.268998
O      6.896749   -0.705452   -0.429716
C      5.307066    0.952784   -1.082271
C      4.095170    1.554396   -0.909649
H      0.979085   -2.137461   -1.359194
H     -0.564260   -1.380596   -2.066742
H     -0.593623   -2.888046   -1.104757
H      0.113839   -2.020663    0.829803
H     -1.792280   -0.527754    1.498757
H     -2.187434   -2.006622    0.640143
H     -2.238940    0.805063   -0.588825
H     -2.652701   -0.754183   -1.440757
H     -3.632330    1.563274    1.244057
H     -5.874251    1.571961    2.234596
H     -7.444551   -0.210313    1.709963
H     -6.798395   -2.027681    0.189571
H     -4.508157   -2.006989   -0.801892
H      0.630344    0.088286    1.381070
H     -0.122755    1.725629   -0.347477
H      0.155255    0.832682   -2.502208
H      1.619806    1.767232   -2.255633
H      1.749956    0.030216   -1.975660
H      1.964677    2.838144   -0.331937
H      2.193861    1.587843    2.155248
H      2.968419   -0.243217    1.640128
H      5.128353   -1.340543    1.354541
H      7.220970   -1.461646    0.125359
H      5.983103    1.299880   -1.869530
H      3.809549    2.368621   -1.544771
