28

C     -2.866871   -1.188934   -0.630919
N     -3.566521    0.049369   -0.675750
C     -3.189441    1.006990    0.308823
C     -1.715222    1.254944    0.410332
N     -0.989731    0.008881    0.276383
C     -1.758966   -1.215772    0.382772
C      0.404099   -0.027666    0.052035
C      1.137191    1.127622   -0.049455
C      2.513893    1.078084   -0.271254
C      3.123507   -0.137623   -0.386252
C      2.370358   -1.292910   -0.281540
N      1.041844   -1.198329   -0.066847
Cl     3.190308   -2.821220   -0.434741
C      4.595817   -0.208942   -0.623732
F      5.100074    1.063689   -0.686820
F      4.754211   -0.764281   -1.893838
F      5.239074   -0.968862    0.326654
H     -2.418631   -1.417924   -1.636969
H     -3.542506   -2.055184   -0.416603
H     -3.692244    0.417027   -1.620513
H     -3.656962    1.990651    0.008195
H     -3.646634    0.790841    1.312081
H     -1.522061    1.611030    1.461530
H     -1.341935    2.043927   -0.255996
H     -2.219852   -1.200074    1.408647
H     -1.095462   -2.066177    0.249272
H      0.690675    2.113269    0.036127
H      3.061988    2.007574   -0.346202
