40

C      0.281080    3.181904   -0.884420
C      0.233451    1.847138   -0.595359
C     -0.979138    1.209419   -0.286367
C     -2.142031    1.945561   -0.273372
C     -2.043911    3.307268   -0.575304
C     -0.875565    3.939955   -0.877844
C     -1.207774   -0.219532    0.045768
C     -0.232031   -1.129431   -0.683403
C      1.062827   -1.050971    0.021065
C      1.464334   -2.178303    0.697098
C      2.679559   -2.147927    1.349655
C      3.488801   -1.030906    1.340674
C      3.070780    0.108593    0.651909
C      1.865469    0.099864   -0.003525
O      1.536979    1.304498   -0.665336
C      3.896416    1.337425    0.606168
C     -0.769484   -2.478689   -0.939032
N     -1.818720   -2.843477    0.007773
C     -2.953718   -2.027541   -0.338702
C     -2.621829   -0.587830   -0.176983
O     -0.866308   -0.341596    1.415233
H      1.229846    3.670277   -1.124530
H     -3.125367    1.579253   -0.043579
H     -2.943651    3.894092   -0.569312
H     -0.833501    5.001235   -1.108485
H     -0.104987   -0.630838   -1.694015
H      0.848802   -3.060879    0.727039
H      2.990597   -3.053381    1.885980
H      4.426357   -0.994869    1.838510
H      3.680263    1.924633   -0.309668
H      3.668339    1.996734    1.461466
H      4.982245    1.078131    0.556928
H     -0.055130   -3.304798   -1.000101
H     -1.306011   -2.512717   -1.939101
H     -1.514194   -2.734010    0.990248
H     -3.834683   -2.299965    0.288031
H     -3.213132   -2.270480   -1.403877
H     -3.070483   -0.066595   -1.072517
H     -3.218150   -0.225421    0.711957
H     -1.676346   -0.235825    1.969331
