39

C     -4.924338    1.119229    0.285771
C     -3.866288    0.043591    0.275507
C     -3.885212   -0.736704    1.556003
C     -4.209976   -0.890584   -0.884081
O     -2.628555    0.676088    0.037463
C     -1.427303   -0.053146   -0.032991
O     -1.556710   -1.281540    0.130842
C     -0.160941    0.639701   -0.281982
C      1.126641    0.151302   -0.387573
C      1.450702   -1.267694   -0.244787
N      2.604278   -1.563786    0.572718
C      3.905415   -0.980325    0.367019
O      4.908303   -1.537464    0.845021
C      4.220201    0.255261   -0.374647
C      3.375865    1.231586   -0.827540
N      1.934271    1.210848   -0.632552
C      1.189467    2.334546   -0.681061
N     -0.064279    1.994307   -0.471420
C      3.942601    2.265481   -1.486839
C      5.303627    2.248297   -1.644211
S      5.754555    0.796795   -0.871818
C      2.536151   -2.476555    1.666524
H     -4.703862    1.852943   -0.535796
H     -5.001758    1.634192    1.244454
H     -5.906453    0.641408    0.071468
H     -3.924275   -1.838814    1.387454
H     -3.035748   -0.460310    2.218735
H     -4.819964   -0.482135    2.096986
H     -3.653702   -1.817721   -0.752276
H     -5.304981   -1.050776   -0.872649
H     -3.865278   -0.370639   -1.807946
H      0.612820   -1.813236    0.224907
H      1.626125   -1.777945   -1.224215
H      1.602769    3.335801   -0.866362
H      3.382044    3.132871   -1.912882
H      5.933727    3.001496   -2.151151
H      2.762140   -3.519198    1.366376
H      3.247198   -2.158139    2.471698
H      1.520724   -2.489035    2.125833
