43

C     -2.482014   -2.327602   -1.271815
C     -1.616000   -1.368210   -0.775351
C     -0.353940   -1.673243   -0.287100
C     -0.003695   -3.004099   -0.323048
C     -0.865589   -3.989208   -0.821283
C     -2.110104   -3.654268   -1.298455
C      0.742072   -0.866856    0.283981
C      0.706060    0.578036   -0.174059
C     -0.475440    1.316075    0.285586
C     -0.223466    2.409960    1.089356
C     -1.266337    3.176659    1.564123
C     -2.570428    2.861879    1.243358
C     -2.857010    1.768020    0.437371
C     -1.803545    1.005133   -0.033572
O     -2.189977   -0.077544   -0.837164
C     -4.219436    1.382218    0.059715
C      1.962586    1.330662    0.058262
N      3.008671    0.626433   -0.708073
C      3.251491   -0.550234    0.090001
C      2.076858   -1.495095    0.086261
C      4.201111    1.414565   -0.796724
O      0.509186   -0.841136    1.681203
H     -3.463906   -2.079317   -1.650396
H      0.952658   -3.344402    0.036956
H     -0.555696   -5.037147   -0.835409
H     -2.751685   -4.439328   -1.676600
H      0.608337    0.494161   -1.302104
H      0.803192    2.631102    1.323374
H     -1.054516    4.045835    2.203627
H     -3.415529    3.435225    1.593445
H     -4.269653    0.302306   -0.187476
H     -4.992836    1.635606    0.793227
H     -4.503882    1.923517   -0.885585
H      1.859269    2.329687   -0.383771
H      2.336942    1.328675    1.099548
H      4.130716   -1.127275   -0.251576
H      3.399097   -0.212823    1.142807
H      2.143661   -2.026356   -0.897844
H      2.302394   -2.186937    0.952435
H      4.841716    1.009677   -1.580134
H      3.908877    2.448261   -1.115478
H      4.735349    1.475725    0.195439
H     -0.435561   -0.628339    1.872942
