36

C     -2.496040    2.154296    0.207773
C     -1.673052    1.160923   -0.317742
C     -0.344384    1.369736   -0.594243
C      0.130653    2.634434   -0.316941
C     -0.633258    3.653882    0.201803
C     -1.961427    3.408594    0.466223
Cl     0.069302    5.250480    0.525386
C      0.612735    0.429462   -1.148768
C      0.667423   -0.925305   -0.476857
C     -0.550738   -1.663777   -0.342808
C     -0.286513   -3.008031   -0.167745
C     -1.260762   -3.956770   -0.013814
C     -2.572744   -3.599466   -0.027850
C     -2.898702   -2.270641   -0.199174
C     -1.905442   -1.338761   -0.351287
O     -2.375730   -0.039487   -0.514526
C      1.399668   -0.578617    0.801073
N      2.061555    0.713996    0.556996
C      2.065455    0.774455   -0.861461
C      3.365683    0.756563    1.163424
H     -3.524666    1.952586    0.408695
H      1.152074    2.853966   -0.510001
H     -2.563625    4.207726    0.873570
H      0.530538    0.289246   -2.244059
H      1.377187   -1.537981   -1.111314
H      0.748465   -3.358426   -0.147406
H     -0.995099   -5.012522    0.122159
H     -3.313257   -4.382828    0.097549
H     -3.940314   -2.003748   -0.208050
H      0.713170   -0.527628    1.646427
H      2.210008   -1.307855    1.009331
H      2.657504   -0.128232   -1.211521
H      2.472528    1.618893   -1.365268
H      4.107194    1.109342    0.434207
H      3.321596    1.509679    1.983413
H      3.633016   -0.208186    1.632805
