57

C     -4.188094    1.099010   -2.365073
C     -4.151873    0.586001   -0.971026
C     -2.852535    0.014688   -0.526546
C     -2.341258   -1.251792   -1.015655
C     -1.818457   -2.219257   -0.169664
C     -1.323947   -3.421436   -0.618635
C     -1.329881   -3.718267   -1.962906
C     -1.839604   -2.786563   -2.830386
C     -2.338527   -1.565964   -2.348822
C     -2.211023    0.739821    0.426600
C     -2.828341    1.982657    0.922678
C     -2.965038    3.076612    0.086100
C     -3.578077    4.209828    0.535421
C     -4.071325    4.275694    1.841507
C     -3.950539    3.208505    2.692420
C     -3.314782    2.060112    2.194694
C     -0.891268    0.287821    0.834912
C     -0.459950    0.201584    2.130038
C      0.814168   -0.195127    2.467327
C      1.765931   -0.541714    1.487414
O      3.003057   -0.926324    1.898338
C      4.161173   -1.290692    1.279392
C      4.751350   -0.168734    0.487362
N      5.961964   -0.464164   -0.190994
C      5.918814   -1.379154   -1.266339
C      7.179036   -0.272565    0.487224
C      1.334134   -0.457073    0.183664
C      0.051509   -0.056519   -0.142141
H     -3.198761    1.380657   -2.785974
H     -4.703807    0.381083   -3.028783
H     -4.791728    2.042103   -2.462767
H     -4.858133   -0.320100   -0.924561
H     -4.555792    1.353875   -0.289166
H     -1.805387   -2.014581    0.879022
H     -0.912139   -4.178711    0.049408
H     -0.935644   -4.671753   -2.294427
H     -1.845169   -3.022420   -3.888014
H     -2.723058   -0.877215   -3.089235
H     -2.564143    2.975060   -0.911251
H     -3.677195    5.060665   -0.141777
H     -4.543262    5.205290    2.119783
H     -4.324650    3.239566    3.703875
H     -3.266669    1.246386    2.900891
H     -1.152360    0.457706    2.949702
H      1.082994   -0.237448    3.517489
H      4.067145   -2.231166    0.677602
H      4.911163   -1.541410    2.095692
H      4.023997    0.199184   -0.249836
H      4.990346    0.644870    1.229439
H      6.646992   -1.027271   -2.058192
H      4.943906   -1.411322   -1.790571
H      6.276936   -2.414971   -1.027880
H      7.095890   -0.135688    1.583801
H      7.889042   -1.068904    0.240477
H      7.654385    0.679236    0.110824
H      2.034932   -0.744456   -0.615560
H     -0.246451    0.004749   -1.180007
