54

C      4.956899   -1.497712   -2.194356
C      5.843922   -0.891198   -1.153464
C      5.259903   -0.966162    0.249261
O      5.034974   -2.265525    0.638972
C      6.262296   -0.367493    1.177554
O      6.976546   -1.044419    1.961427
O      6.425752    1.008661    1.186952
C      5.551503    1.911989    0.580968
C      4.192067    1.260590    0.472465
C      4.053881   -0.101284    0.314696
C      2.812949   -0.684251    0.217611
C      1.707618    0.148350    0.284332
N      1.827133    1.474759    0.437508
C      0.502339    2.076615    0.472431
C     -0.418066    0.922910    0.323967
C     -1.808754    0.824698    0.283771
C     -2.457296   -0.371987    0.135513
C     -3.859538   -0.389281    0.102635
C     -4.627926    0.844311    0.194315
N     -6.049408    0.758862    0.235388
C     -6.632296    0.282923    1.445658
C     -6.611624    2.056452   -0.071211
C     -4.439526   -1.629190   -0.053875
O     -5.818827   -1.786356   -0.110713
C     -3.675867   -2.800008   -0.170038
C     -2.307473   -2.742959   -0.131913
C     -1.691915   -1.501576    0.023899
N     -0.349054   -1.428754    0.060350
C      0.288840   -0.250280    0.206782
C      3.048455    2.031660    0.531197
O      3.168596    3.294024    0.677070
H      5.525494   -2.232691   -2.837725
H      4.116510   -2.084719   -1.786649
H      4.573325   -0.747147   -2.911858
H      6.033333    0.150033   -1.442102
H      6.828537   -1.421674   -1.190765
H      4.957189   -2.899849   -0.115706
H      5.383685    2.738786    1.325922
H      5.893426    2.290056   -0.381764
H      2.676930   -1.757825    0.094042
H      0.398757    2.520387    1.498984
H      0.353782    2.839510   -0.305437
H     -2.349015    1.740766    0.371607
H     -4.229907    1.556704    0.966128
H     -4.397986    1.409566   -0.766538
H     -7.567603   -0.252859    1.214909
H     -7.007753    1.195383    2.033860
H     -6.003042   -0.329747    2.095868
H     -7.465750    2.281690    0.602717
H     -6.898502    2.131689   -1.144307
H     -5.817827    2.810128    0.104636
H     -6.227972   -2.692295   -0.224463
H     -4.196172   -3.762810   -0.292140
H     -1.745544   -3.661447   -0.223458
