28

N      4.817606    0.843444   -0.024259
C      3.472440    0.356288   -0.116467
N      3.292702   -0.930899   -0.461322
C      2.045674   -1.399800   -0.551512
O      1.909464   -2.610335   -0.876819
N      0.953789   -0.648471   -0.314324
C      1.121443    0.645655    0.032780
C      2.398000    1.177864    0.139309
C     -0.397923   -1.196950   -0.423010
C     -0.966570   -1.357703    0.951483
C     -2.321521   -0.725183    0.873394
C     -2.405437   -0.212057   -0.514983
C     -2.790009    1.262998   -0.575470
O     -4.016931    1.475959    0.090267
O     -1.225908   -0.397970   -1.158531
H      5.555721    0.206698    0.353138
H      4.983645    1.812949   -0.341609
H      0.297163    1.312534    0.238963
H      2.591662    2.192953    0.409722
H     -0.313819   -2.182382   -0.956661
H     -0.338397   -0.849552    1.719419
H     -1.021024   -2.438493    1.191455
H     -3.083995   -1.544055    1.017993
H     -2.476464    0.066418    1.640462
H     -3.206028   -0.750527   -1.092471
H     -1.994301    1.914159   -0.161807
H     -2.925583    1.553665   -1.637211
H     -3.955397    2.422792    0.419045
