56

Ca     0.000000    0.000000    0.000000
N     -9.879344    0.220182   -0.912813
C     -8.442960    0.037604   -0.884706
N     -7.884249   -1.027802   -1.471784
C     -6.542765   -1.248990   -1.476685
O     -6.057939   -2.262260   -2.043029
C     -5.714700   -0.345965   -0.853928
C     -6.313737    0.753030   -0.252123
N     -5.473772    1.708259    0.371770
C     -4.088640    1.414483    0.581544
C     -3.546430    0.708937   -0.641760
C     -2.074288    0.625339   -0.564810
N     -1.538737   -0.071765    0.576213
C     -0.131201   -0.178554    0.697970
C      0.712796    0.370611   -0.245378
C      2.092916    0.270516   -0.129188
C      2.662339   -0.383861    0.937477
C      1.801824   -0.930209    1.876599
C      0.436880   -0.839408    1.775363
C      4.103001   -0.505363    1.092420
O      4.543970   -1.169771    2.082697
N      5.044188    0.059261    0.225928
C      6.517529   -0.085703    0.415472
C      7.106097   -0.883617   -0.667788
C      8.590692   -1.018708   -0.555216
C      9.355267    0.222740   -0.789868
O     10.644835    0.407822   -0.349760
O      8.771050    1.158341   -1.435969
C      7.040606    1.238826    0.666737
O      6.449166    2.393571    0.175628
O      8.100566    1.397506    1.373741
N     -4.279418   -0.501977   -0.802793
C     -3.749996   -1.809524   -0.885136
O     -2.481007   -1.998104   -0.945007
N     -7.656334    0.929256   -0.274171
H    -10.323343    0.943248   -0.311190
H    -10.484522   -0.358290   -1.524714
H     -5.901152    2.634932    0.673235
H     -4.032172    0.730894    1.477641
H     -3.507928    2.342616    0.748514
H     -3.786589    1.396852   -1.507843
H     -1.598299    0.253652   -1.495518
H     -1.697116    1.687589   -0.471529
H     -2.123849   -0.500542    1.318362
H      0.302541    0.888053   -1.090891
H      2.729090    0.707631   -0.879442
H      2.217193   -1.450774    2.726643
H     -0.248013   -1.260168    2.499904
H      4.727493    0.609686   -0.594466
H      6.568620   -0.733540    1.359550
H      6.853474   -0.426370   -1.665417
H      6.694872   -1.946785   -0.663831
H      8.891824   -1.416377    0.451257
H      8.982735   -1.786468   -1.267529
H     -4.306254   -2.731051   -0.902984
H     -8.076813    1.760509    0.185215
