46

C      2.125195    5.390989   -0.149641
O      2.839489    4.208377    0.145858
C      2.410305    2.954598   -0.288011
C      1.270922    2.767175   -1.030003
C      0.859445    1.497307   -1.454457
C      1.569962    0.372505   -1.152493
C      1.206328   -1.022456   -1.543651
C      0.646110   -1.833133   -0.474682
N      1.469167   -2.652142    0.246579
C      1.023739   -3.388249    1.281663
C     -0.297479   -3.362195    1.680775
C     -1.153657   -2.548609    0.974609
C     -2.468391   -2.541943    1.367126
C     -3.369574   -1.757565    0.678324
O     -4.707985   -1.705979    1.022492
C     -5.290900   -2.414787    2.066961
C     -2.922094   -1.006136   -0.381019
O     -3.780259   -0.194663   -1.119965
C     -3.421745    0.594149   -2.203574
C     -1.589616   -1.031496   -0.754401
C     -0.665290   -1.799188   -0.091146
C      2.734894    0.576339   -0.392403
C      3.143199    1.818497    0.025856
O      4.298919    2.009872    0.778207
C      5.082688    0.898095    1.126359
H      1.756100    5.356515   -1.194317
H      2.788757    6.285496   -0.108172
H      1.227015    5.501044    0.501013
H      0.670120    3.642954   -1.293933
H     -0.037913    1.423906   -2.044176
H      2.175793   -1.495981   -1.884761
H      0.588790   -1.021588   -2.478105
H      1.726083   -4.015645    1.810355
H     -0.639846   -3.966878    2.525159
H     -2.852230   -3.111615    2.185327
H     -5.171812   -1.868244    3.031129
H     -4.864056   -3.430133    2.203499
H     -6.399075   -2.545635    1.873350
H     -4.348579    0.780651   -2.803470
H     -2.730816    0.040130   -2.854191
H     -2.954804    1.569665   -1.896289
H     -1.249045   -0.461920   -1.580239
H      3.304385   -0.314746   -0.149229
H      6.091019    1.277905    1.464609
H      5.227193    0.173372    0.307447
H      4.679552    0.351384    2.025634
