38

C      3.496052   -0.037230    1.489746
N      3.223335   -0.477163    0.185900
C      4.281886   -0.547375   -0.750413
C      1.992744   -0.164283   -0.419239
C      0.798283   -0.855482    0.179570
C     -0.444762   -0.422681   -0.568319
C     -1.666003   -1.090654   -0.005235
C     -2.674397   -0.379115    0.607288
C     -3.790332   -1.026760    1.124600
C     -3.870802   -2.398016    1.014543
C     -2.869101   -3.120582    0.405531
C     -1.757554   -2.456964   -0.108364
C     -0.694597    1.014828   -0.550912
C     -1.261655    1.664038   -1.624552
C     -1.484253    3.014409   -1.568208
C     -1.142533    3.743789   -0.434630
C     -0.581939    3.069066    0.610382
N     -0.368182    1.744037    0.544636
H      2.999359    0.903318    1.799657
H      4.595134    0.153507    1.600473
H      3.277354   -0.878346    2.207714
H      4.526906   -1.621188   -0.986513
H      4.050414   -0.093602   -1.736730
H      5.241468   -0.103960   -0.410309
H      1.753858    0.926027   -0.405652
H      2.032239   -0.458123   -1.487476
H      0.857982   -1.966406    0.050307
H      0.636702   -0.640217    1.244697
H     -0.358825   -0.738221   -1.643257
H     -2.563729    0.689687    0.665844
H     -4.586879   -0.448854    1.611509
H     -4.716566   -2.923980    1.403803
H     -2.922534   -4.206492    0.312061
H     -0.934898   -2.992183   -0.600638
H     -1.551914    1.155799   -2.533236
H     -1.921813    3.556858   -2.383182
H     -1.293754    4.807052   -0.340978
H     -0.306696    3.605465    1.499583
