38

O      4.980612    2.299214   -0.691779
C      3.769342    1.665540   -0.435852
C      3.398588    0.523936   -1.125797
C      2.175375   -0.068886   -0.829260
C      1.320635    0.420939    0.110743
C      1.719395    1.558907    0.779990
C      2.929861    2.189182    0.521974
C      0.012775   -0.192215    0.442324
O      0.050339   -0.333996    1.878383
C     -0.119488   -1.611090    2.274066
O     -0.151006   -2.019208    3.458262
C     -0.258157   -2.420444    1.080609
C     -0.437126   -3.785493    0.948109
C     -0.530285   -4.366171   -0.292241
C     -0.442844   -3.571322   -1.389806
C     -0.262985   -2.198696   -1.249026
C     -0.163622   -1.564023   -0.027023
C     -1.135283    0.723601    0.198563
C     -1.603313    1.545859    1.236843
C     -2.659041    2.408441    1.042797
C     -3.303837    2.509070   -0.164862
O     -4.379641    3.387080   -0.365010
C     -2.854739    1.709101   -1.188944
C     -1.796724    0.844269   -0.995835
H      5.639555    1.977057   -1.371798
H      4.041146    0.101901   -1.876028
H      1.923697   -0.940454   -1.372925
H      1.107108    2.016342    1.540309
H      3.250193    3.083823    1.043863
H     -0.504475   -4.402801    1.825308
H     -0.672547   -5.454017   -0.369847
H     -0.516151   -4.028615   -2.384046
H     -0.201582   -1.657124   -2.164434
H     -1.127101    1.499531    2.207361
H     -3.020838    3.048979    1.857575
H     -5.335517    3.071427   -0.189362
H     -3.339439    1.769983   -2.134515
H     -1.502880    0.260375   -1.828687
