37

C     -4.644560    0.438999   -0.329626
C     -3.303320   -0.200925   -0.011300
C     -3.372466   -1.624538   -0.505900
C     -3.116952   -0.153762    1.508444
N     -2.221096    0.493533   -0.676798
C     -0.942805    0.105101   -0.074219
C      0.206846    0.805350   -0.728435
O      0.271387    0.519064   -2.099862
C      1.467748    0.414704   -0.109259
C      1.533050   -0.301783    1.038219
C      2.758482   -0.644939    1.586200
C      3.904940   -0.252798    0.956476
O      5.146152   -0.605170    1.519045
C      3.820225    0.470405   -0.201832
C      5.039668    0.911224   -0.910333
O      4.702118    1.621116   -2.045957
N      2.623542    0.788910   -0.710254
H     -4.898271    0.207679   -1.375464
H     -4.645776    1.509458   -0.085386
H     -5.395246   -0.096181    0.307504
H     -3.870839   -2.214993    0.301442
H     -2.420101   -2.067827   -0.789701
H     -4.017746   -1.608487   -1.432313
H     -4.095865   -0.374567    2.007008
H     -2.745294    0.834608    1.821896
H     -2.390342   -0.909844    1.854535
H     -2.338908    1.518684   -0.432668
H     -0.933774    0.377267    1.003546
H     -0.825031   -0.974168   -0.226278
H      0.030972    1.911556   -0.650809
H      0.463712   -0.467543   -2.207791
H      0.677952   -0.646250    1.586753
H      2.813580   -1.223368    2.512694
H      5.185800   -1.139523    2.374666
H      5.659054    0.005426   -1.147756
H      5.648866    1.522452   -0.217724
H      4.224297    1.051129   -2.679245
