13

N      1.997800   -0.394838    0.109415
C      0.608614   -0.129037    0.033311
C      0.155644    1.178824   -0.007841
F      1.054563    2.178577    0.025716
C     -1.192502    1.427346   -0.081565
N     -2.036688    0.376904   -0.111593
C     -1.566837   -0.896384   -0.070023
O     -2.368493   -1.866453   -0.098902
N     -0.250352   -1.165133    0.002318
H      2.456926   -0.623190    1.015326
H      2.604264   -0.370774   -0.735578
H     -1.545794    2.449757   -0.113688
H      0.082856   -2.165599    0.033104
