31

Cl     5.141477    0.986649   -0.981785
C      4.551550    1.089232    0.693504
C      3.876692   -0.199131    1.086657
N      2.750367   -0.512810    0.252351
N      2.925238   -1.267364   -0.893496
O      3.311288   -2.441245   -0.932893
C      1.470944   -0.046219    0.611205
O      1.319482    0.631279    1.641661
N      0.304401   -0.309669   -0.155334
C     -1.013085    0.173508    0.218443
C     -1.815995   -1.053268    0.557253
C     -3.250829   -0.716762    0.774270
C     -3.784745   -0.177583   -0.526948
C     -3.049267    1.030339   -1.020591
C     -1.589347    1.024291   -0.852321
H      3.881612    1.956420    0.837596
H      5.429236    1.218665    1.352396
H      3.570938   -0.105330    2.152149
H      4.642663   -1.018486    0.977758
H      0.414352   -0.876278   -1.022125
H     -0.901440    0.749594    1.166503
H     -1.417588   -1.456192    1.525569
H     -1.722959   -1.866469   -0.170687
H     -3.429254   -0.049931    1.630425
H     -3.796285   -1.679535    0.961540
H     -3.760936   -0.995465   -1.277297
H     -4.855932    0.063818   -0.359776
H     -3.505450    1.915296   -0.482684
H     -3.359667    1.177235   -2.081949
H     -1.124281    0.693693   -1.829434
H     -1.213179    2.061720   -0.717014
