38

C     -1.450774   -3.330773   -0.199919
N     -1.169170   -2.133018   -0.932934
C     -1.669166   -0.933433   -0.288704
C     -2.980176   -1.202810    0.386208
S     -3.611444    0.222051    1.206434
C     -4.260282    1.583900    0.331742
C     -3.341298    2.433372   -0.489569
F     -2.337629    2.953659    0.294611
F     -2.961741    1.912112   -1.676908
F     -4.132927    3.584179   -0.825574
N     -0.767487   -0.390149    0.706298
C      0.605804   -0.094560    0.446376
C      1.287024    0.868638    1.191422
C      2.606092    1.178633    0.971267
Cl     3.501811    2.369918    1.872352
C      3.266221    0.485479   -0.045745
C      2.581720   -0.463334   -0.774126
C      1.269228   -0.769720   -0.552828
S      0.425473   -1.965031   -1.478760
O      1.201932   -3.234670   -1.538498
O      0.358907   -1.438091   -2.907135
S      4.924036    0.800346   -0.402901
N      5.229418    2.415888   -0.875934
O      5.769429    0.480988    0.808300
O      5.373529   -0.119249   -1.495338
H     -2.513863   -3.630689   -0.325234
H     -0.846302   -4.149045   -0.658838
H     -1.130481   -3.285191    0.868813
H     -1.836747   -0.220873   -1.112611
H     -3.727451   -1.586922   -0.365832
H     -2.804293   -1.999426    1.164757
H     -5.160830    1.283310   -0.301836
H     -4.697040    2.307897    1.112135
H     -1.083776   -0.177878    1.702324
H      0.773465    1.404446    1.979254
H      3.076565   -1.026695   -1.582490
H      4.407694    2.909193   -1.254020
H      5.824528    2.957546   -0.249901
