52

C      1.825459    0.557093   -1.528508
C      1.576629   -0.558341   -0.583926
C      0.763215   -1.617487   -1.323263
C     -0.637094   -1.178950   -1.515620
O     -1.166602   -1.387624   -2.586776
C     -1.413480   -0.489380   -0.432981
C     -0.465383    0.565262    0.120276
C     -1.064776    1.510166    1.088961
C     -2.411532    2.045929    0.648758
C     -3.266790    0.879402    0.211903
C     -4.410296    0.714115    0.833992
C     -5.260971   -0.394875    0.448182
O     -6.350691   -0.533873    1.056046
C     -4.804570   -1.271619   -0.610398
C     -3.641108   -1.051524   -1.200122
C     -2.718018    0.053685   -0.871339
C     -2.594238    0.877973   -2.157219
C      0.692844   -0.193393    0.606049
C      1.638614    0.401746    1.560149
C      2.662069   -0.761731    1.587101
C      2.779345   -1.118066    0.099081
O      2.703535   -2.516308   -0.097686
C      4.043718   -0.576579   -0.419803
O      4.675380   -1.336579   -1.173695
C      4.628469    0.738415   -0.140960
O      5.846930    0.839109   -0.850360
H      1.806471    1.566361   -1.123944
H      2.795868    0.379941   -2.033346
H      1.076973    0.569078   -2.373786
H      0.867020   -2.598271   -0.826335
H      1.232054   -1.703234   -2.322725
H     -1.570561   -1.240731    0.365398
H     -0.145069    1.150972   -0.792700
H     -0.393052    2.389982    1.169715
H     -1.122538    1.082977    2.117943
H     -2.318214    2.764343   -0.163964
H     -2.860085    2.558529    1.522784
H     -4.706823    1.411639    1.632500
H     -5.436230   -2.121913   -0.917941
H     -3.369541   -1.773242   -2.001025
H     -3.370492    1.650880   -2.152518
H     -2.789405    0.232281   -3.046122
H     -1.568438    1.232800   -2.244448
H      0.369166   -1.176694    1.023923
H      1.230914    0.535547    2.585568
H      2.114407    1.340236    1.272552
H      2.151178   -1.613152    2.076434
H      3.603498   -0.463781    2.028405
H      3.484998   -2.959464    0.319405
H      4.035084    1.603414   -0.464031
H      4.811610    0.906000    0.949509
H      6.440550    0.078937   -0.564586
