29

N      5.473970   -0.737197    0.621280
C      4.256561   -1.225917    0.097470
O      4.175787   -2.412780   -0.256128
C      3.096623   -0.323611   -0.023801
N      3.072994    0.973700    0.327019
C      1.838380    1.433771    0.059734
N      1.094719    0.437663   -0.452981
N      1.883100   -0.610631   -0.490727
C     -0.288572    0.584179   -0.854394
O     -0.974728    1.212805    0.159043
C     -2.277204    0.693620    0.130618
C     -3.023836    0.986774    1.401290
O     -4.297124    0.433060    1.272961
C     -1.988373   -0.787108   -0.021182
O     -3.114732   -1.501091   -0.392547
C     -0.948342   -0.733744   -1.121418
O     -1.629250   -0.651905   -2.328323
H      5.781719    0.260691    0.439245
H      6.129225   -1.298792    1.199802
H      1.501114    2.465958    0.237133
H     -0.285385    1.214075   -1.776500
H     -2.788434    1.112203   -0.738348
H     -2.474510    0.604189    2.278710
H     -3.157213    2.086173    1.459530
H     -4.592299    0.624858    0.330883
H     -1.504517   -1.160696    0.884834
H     -3.194109   -2.312737    0.180321
H     -0.253440   -1.591770   -1.080368
H     -1.512124    0.224259   -2.773932
