8

C     -0.790600    0.075771   -0.242510
C      0.637719   -0.064960    0.200857
Cl     1.492020   -1.243844   -0.813577
Cl     1.519017    1.487522    0.022500
Cl     0.617236   -0.583862    1.909696
H     -0.908836    0.999073   -0.843229
H     -1.507682    0.134405    0.611056
H     -1.058875   -0.804105   -0.844793
