15

C     -0.989342   -1.155034    0.497909
C     -0.156688   -0.265042   -0.422483
C      1.322453   -0.537883   -0.140562
C     -0.480039    1.165085   -0.077559
O      0.207533    2.078737   -0.838870
H     -1.758096   -0.574747    1.043714
H     -0.342494   -1.625547    1.281193
H     -1.509051   -1.957109   -0.071483
H     -0.323119   -0.508142   -1.488836
H      1.461629   -1.632936   -0.019443
H      1.632078   -0.003056    0.775436
H      1.965692   -0.211262   -0.979915
H     -0.304550    1.280262    1.013618
H     -1.564693    1.300752   -0.241789
H      0.838687    2.645923   -0.330929
