44

S     -0.426599   -2.894456   -1.689868
C     -0.644241   -1.392179   -0.912994
N     -1.926231   -0.889601   -1.039952
C     -2.419373    0.324907   -0.467869
C     -2.778856    0.062126    0.965006
C     -4.191302   -0.239692    1.263145
C     -5.234025    0.354753    0.395026
C     -4.599424    1.501147   -0.397151
C     -3.590702    0.804440   -1.290871
N      0.450070   -0.861698   -0.264067
C      1.697127   -1.681602   -0.300169
C      2.727413   -0.833617   -0.990270
C      2.977425    0.395777   -0.132434
C      2.010044    0.443724    1.007427
C      0.578413    0.383017    0.405979
C      4.374723    0.279942    0.369221
N      5.410199    1.117010    0.156831
C      6.517019    0.679969    0.772795
N      6.174420   -0.456899    1.387373
C      4.877822   -0.727853    1.161371
H     -2.667344   -1.448986   -1.626160
H     -1.649785    1.106939   -0.542082
H     -2.123650   -0.774422    1.356924
H     -2.474121    0.957842    1.548980
H     -4.307362   -1.363375    1.171748
H     -4.462627   -0.060783    2.341948
H     -6.069024    0.722554    1.015712
H     -5.593382   -0.356736   -0.389739
H     -5.331187    2.047036   -0.990971
H     -4.099809    2.189063    0.313491
H     -3.211259    1.502801   -2.057307
H     -4.116140   -0.066950   -1.733058
H      1.507291   -2.625409   -0.877002
H      1.931897   -1.972232    0.723902
H      2.294258   -0.549312   -1.981139
H      3.652020   -1.410819   -1.182699
H      2.858081    1.300761   -0.741444
H      2.122996   -0.300630    1.784158
H      2.092104    1.438167    1.515749
H      0.614250    1.251013   -0.329574
H     -0.136048    0.536662    1.216910
H      5.356380    1.985331   -0.409310
H      7.508417    1.113920    0.802063
H      4.320120   -1.591653    1.537168
