117

C     -1.944049   -2.423809    2.939706
C     -1.052975   -2.800117    1.761299
C     -0.455002   -1.597142    1.111137
C      0.772200   -1.546291    0.611394
C      1.755859   -2.611586    0.594208
C      2.414997   -3.083077    1.652850
C      2.328188   -2.668142    3.038536
O      1.940972   -3.580777    3.847309
N      2.631487   -1.351741    3.581895
C      2.378051   -0.109110    2.828843
C      1.260962    0.579143    3.019374
C      0.857784    1.820345    2.270025
C     -0.382327    2.389878    2.592303
C     -0.843729    3.501547    1.952598
C     -0.039741    4.018048    0.991412
C      1.179711    3.474316    0.662753
C      1.678711    2.344409    1.293345
C      2.889673    1.637659    1.066525
O      3.832392    1.930292    0.202991
C      3.310248    0.405948    1.791364
C      4.524252   -0.049577    1.351380
N      5.276831    0.563409    0.358824
N      5.559938   -0.109239   -0.826616
C      4.493259   -0.633412   -1.585434
C      5.045424   -0.928354   -2.992484
N      6.492913   -0.869693   -2.972537
C      7.030715   -1.669294   -1.889310
C      6.540235   -1.175297   -0.565509
C      7.080087   -1.190496   -4.233100
C      1.667503    4.334383   -0.385522
O      2.736400    4.777917   -0.865740
C      0.380125    4.794634   -1.053664
O     -0.318614    5.164274    0.191657
O     -0.361830    3.853840   -1.654187
C     -0.353280    2.807775   -2.478427
C     -1.400729    1.989541   -2.620999
C     -2.688007    2.074327   -1.944248
C     -3.565850    0.844313   -2.214378
C     -3.814084    0.068315   -0.980238
C     -4.157359   -1.385672   -1.169038
C     -3.075943   -2.343593   -0.833388
C     -3.205510   -3.076648    0.464310
C     -1.833880   -3.637708    0.801067
O     -1.064648   -3.861765   -0.339110
C     -4.106545   -4.292237    0.240103
O     -2.913496   -3.340685   -1.824040
C     -5.352570   -1.650138   -0.276250
O     -4.778680    0.668885   -0.121604
C     -4.471017    1.073639    1.159198
O     -3.302567    0.890581    1.536728
C     -5.424579    1.702042    2.101138
C     -3.181882    0.084989   -3.425892
O     -3.405310    3.241867   -2.177842
C     -3.700355    3.996150   -1.080853
C      0.673725    6.019457   -1.845113
C     -2.160408    4.082903    2.334924
O     -1.188602    1.828826    3.579167
O      0.167398    0.355095    3.949342
C      3.356738   -4.251260    1.326340
H     -2.414619   -1.448677    2.814561
H     -1.364022   -2.504698    3.905310
H     -2.760242   -3.186302    3.056664
H     -0.274456   -3.463766    2.189446
H     -1.141562   -0.740376    1.090306
H      1.052604   -0.580778    0.154570
H      2.025083   -3.096207   -0.380486
H      3.086881   -1.456668    4.585334
H      5.037475   -0.935270    1.724184
H      5.704490    1.499093    0.487958
H      3.652802    0.067686   -1.658512
H      4.113179   -1.578583   -1.128025
H      4.635372   -1.881914   -3.339178
H      4.676658   -0.100853   -3.642258
H      6.762536   -2.738110   -2.077141
H      8.146275   -1.612081   -1.944387
H      6.062109   -2.029406   -0.028338
H      7.374016   -0.805521    0.042054
H      6.493914   -1.906555   -4.848516
H      7.072664   -0.234913   -4.838770
H      8.129874   -1.468916   -4.105159
H      0.492550    2.488065   -3.133739
H     -1.276316    1.160291   -3.320007
H     -2.487519    2.065156   -0.841050
H     -4.586039    1.288272   -2.470031
H     -2.869257    0.047942   -0.377704
H     -4.581116   -1.569900   -2.208507
H     -2.082675   -1.825596   -0.816307
H     -3.530727   -2.488596    1.318314
H     -1.943672   -4.648332    1.283891
H     -1.198154   -4.773308   -0.723095
H     -3.572206   -5.241770    0.485472
H     -4.987224   -4.270456    0.897480
H     -4.398413   -4.397716   -0.824506
H     -3.656091   -3.275006   -2.505975
H     -5.177617   -1.471948    0.787169
H     -5.895200   -2.577074   -0.529991
H     -6.085568   -0.830532   -0.574458
H     -5.098678    1.471837    3.146867
H     -5.356118    2.801306    1.934250
H     -6.459494    1.375987    1.977035
H     -2.959922    0.768884   -4.302521
H     -3.986093   -0.561929   -3.835251
H     -2.297913   -0.571795   -3.336771
H     -2.804025    4.343991   -0.546040
H     -4.208633    4.923828   -1.461011
H     -4.445651    3.528408   -0.400502
H     -0.259096    6.589529   -2.015585
H      1.056490    5.713662   -2.828648
H      1.466803    6.625864   -1.375085
H     -2.146857    5.126334    1.896966
H     -2.184485    4.242635    3.420740
H     -3.020690    3.588188    1.891274
H     -2.060068    2.263495    3.818220
H      0.152273    0.857707    4.844136
H      4.371106   -3.873837    1.130881
H      3.386228   -4.945857    2.188814
H      2.905825   -4.826797    0.497132
