43

C     -4.780733    0.480253    0.473089
N     -3.456617    0.050725    0.307431
C     -2.746846   -0.331739    1.482272
C     -1.259762   -0.380684    1.189558
C     -1.019377   -0.003201   -0.246423
C     -1.809239   -0.962144   -1.109002
C     -3.233941   -1.030352   -0.594812
C     -3.392076   -2.249249    0.301555
O     -4.424142   -2.170420    1.202524
C     -3.233813   -1.747056    1.724210
O      0.303240    0.126717   -0.606252
C      0.893531    1.290678   -1.056745
O      0.123390    2.296183   -1.130576
C      2.324428    1.394064   -1.436366
C      2.655995    0.491120   -2.608681
O      2.418258   -0.838907   -2.358279
C      3.135334    1.044793   -0.240936
C      4.018921    1.986150    0.243321
C      4.792603    1.712989    1.346150
C      4.677823    0.482182    1.968916
C      3.794913   -0.460687    1.486409
C      3.023184   -0.183189    0.383250
H     -5.395839   -0.043015    1.205996
H     -4.772030    1.570122    0.754908
H     -5.307358    0.448726   -0.509482
H     -2.969097    0.338558    2.350837
H     -0.870825   -1.412421    1.326856
H     -0.719490    0.311274    1.882417
H     -1.513380    1.003890   -0.388680
H     -1.847124   -0.499425   -2.138137
H     -1.342449   -1.966445   -1.164842
H     -3.958508   -1.124760   -1.408416
H     -2.945197   -3.200914    0.002595
H     -2.752458   -2.375688    2.478429
H      2.602196    2.415396   -1.747126
H      2.087311    0.835261   -3.496061
H      3.725994    0.642297   -2.850741
H      2.309731   -1.300906   -3.227908
H      4.106420    2.966315   -0.257340
H      5.475067    2.475863    1.698038
H      5.285906    0.256728    2.842346
H      3.674746   -1.444985    1.950188
H      2.321312   -0.894101   -0.024491
