47

C     -5.528554    0.490152   -1.401043
C     -5.939543    0.043010   -0.008523
C     -4.927884    0.515042    1.028703
N     -3.656448   -0.146209    0.870501
C     -3.436890   -0.370037   -0.522452
C     -4.041637    0.771895   -1.329627
C     -2.592069    0.472119    1.579714
C     -1.291287   -0.177189    1.477588
C     -1.217363   -1.507228    1.145802
C      0.023492   -2.089096    1.051996
C      1.173423   -1.357440    1.285227
C      1.148935   -0.019409    1.620242
C     -0.153492    0.533785    1.704724
O      2.225503    0.737859    1.852462
C      3.559627    0.735573    1.875969
C      4.383479    0.555471    0.655898
C      4.233170   -0.685215   -0.130131
N      5.122202   -0.743689   -1.281674
C      5.083992    0.206096   -2.334195
O      4.269846    1.154789   -2.324838
C      6.016272    0.092882   -3.476996
H     -5.686241   -0.338409   -2.119364
H     -6.099397    1.371459   -1.747786
H     -6.110197   -1.031957    0.041790
H     -6.895025    0.548126    0.226656
H     -4.894561    1.601382    0.991045
H     -5.340268    0.178629    2.016436
H     -2.385315   -0.543441   -0.817808
H     -3.995742   -1.285000   -0.810588
H     -3.607174    0.754704   -2.347606
H     -3.898009    1.704349   -0.783553
H     -2.871266    0.508146    2.654958
H     -2.553091    1.550299    1.256580
H     -2.125608   -2.105178    0.960058
H      0.078498   -3.144279    0.788458
H      2.139854   -1.873864    1.219133
H     -0.158068    1.600392    1.973422
H      3.992043   -0.037056    2.619492
H      3.948166    1.705833    2.368453
H      5.465486    0.568941    1.016863
H      4.262163    1.449930   -0.035863
H      3.208806   -0.734289   -0.579698
H      4.410531   -1.572953    0.495548
H      5.835075   -1.509699   -1.368422
H      5.682680   -0.699337   -4.189244
H      6.096496    1.054439   -4.004865
H      7.045390   -0.208665   -3.163444
