42

O      6.794697    1.996870   -1.957469
C      5.551234    1.825625   -1.390163
O      4.646934    2.647164   -1.635377
C      5.306265    0.701023   -0.522367
C      4.141535    0.456949    0.073430
C      3.889277   -0.671782    0.947969
C      5.015434   -1.601144    1.179570
C      6.195820   -1.411460    0.616572
C      6.391669   -0.260225   -0.252953
O      7.517523   -0.070146   -0.795106
N      2.752948   -0.874388    1.521892
N      1.684225   -0.000169    1.328282
C      0.451009   -0.476012    0.809587
C     -0.340929   -1.326469    1.588837
C     -1.546339   -1.778449    1.105715
C     -2.043124   -1.430999   -0.150354
C     -1.259896   -0.602200   -0.896339
C     -0.046638   -0.139279   -0.427017
S     -3.571120   -2.111668   -0.638884
O     -3.497903   -3.598333   -0.360276
O     -3.770152   -1.932750   -2.116422
N     -4.832557   -1.367877    0.233683
C     -5.189129   -0.004668    0.200832
C     -4.541694    0.881657   -0.628488
C     -4.893633    2.239629   -0.692566
C     -5.913102    2.676094    0.099649
C     -6.550465    1.761420    0.927245
N     -6.201059    0.474125    0.974313
H      7.122016    2.847607   -2.385316
H      3.308071    1.147956   -0.099060
H      4.842529   -2.440841    1.825745
H      7.025491   -2.078895    0.775968
H      1.800590    1.016155    1.569884
H      0.030757   -1.604755    2.566264
H     -2.159424   -2.444079    1.722387
H     -1.620370   -0.316757   -1.877843
H      0.580909    0.526505   -1.023188
H     -5.412387   -1.981446    0.866749
H     -3.747883    0.581025   -1.278119
H     -4.359458    2.902799   -1.357966
H     -6.197564    3.700702    0.065772
H     -7.354110    2.141486    1.543071
