49

C      2.479607    1.393989    0.735901
C      2.296274    0.497614   -0.462406
C      1.473445    1.105742   -1.539029
C      0.103985    1.419560   -0.950113
C     -0.551889    0.140934   -0.514199
C      0.274800   -0.640702    0.485430
C     -0.367903   -2.022410    0.584746
C     -1.812270   -1.962355    0.929510
C     -2.586200   -0.949589    0.193473
C     -3.822224   -1.238159   -0.247077
C     -4.620066   -0.262479   -0.979394
O     -5.582324   -0.610419   -1.679830
C     -4.193154    1.171409   -0.822037
C     -2.696208    1.183330   -1.051834
C     -1.959042    0.377015   -0.037566
C     -1.943171    1.146847    1.261470
C      1.635185   -0.821756   -0.071997
C      2.654852   -1.384373    0.851355
C      3.970271   -1.058393    0.146687
C      3.642178    0.002619   -0.886908
O      4.604582    0.996540   -0.940653
H      3.507440    1.301548    1.174011
H      1.742745    1.232273    1.529692
H      2.443474    2.452875    0.343743
H      1.955866    2.075814   -1.847594
H      1.407196    0.405687   -2.378930
H     -0.517563    1.877446   -1.719961
H      0.281975    2.070541   -0.073215
H     -0.604960   -0.513351   -1.433444
H      0.268174   -0.177223    1.494827
H     -0.187665   -2.525328   -0.386868
H      0.151600   -2.616279    1.364610
H     -2.255589   -2.961440    0.703895
H     -1.932278   -1.848421    2.043028
H     -4.248897   -2.211641   -0.062337
H     -4.483340    1.498532    0.181946
H     -4.701271    1.754428   -1.589886
H     -2.543868    0.794407   -2.095600
H     -2.381661    2.250133   -0.980870
H     -2.598864    2.035506    1.243606
H     -2.321399    0.503657    2.093428
H     -0.917662    1.482238    1.467710
H      1.584573   -1.441022   -0.976562
H      2.693181   -0.792556    1.812831
H      2.540624   -2.451870    1.058267
H      4.729806   -0.674647    0.840161
H      4.319990   -1.997335   -0.299798
H      3.581438   -0.543868   -1.868279
H      5.486208    0.534934   -0.985818
