56

C     -2.708289   -2.670078    1.146496
N     -3.237276   -1.338051    0.919971
C     -4.163917   -1.413776   -0.158784
C     -2.215360   -0.328833    0.771342
C     -1.323335   -0.531098   -0.400521
C     -0.086082   -1.248801    0.055988
C      1.185326   -0.732298   -0.595512
C      1.326719    0.706615   -0.473796
C      2.397863    1.376710   -0.089424
O      2.357183    2.765237   -0.036706
C      3.597436    0.628495    0.277277
C      4.767795    1.332486    0.601925
O      4.847431    2.685615    0.675446
C      5.911106    0.548605    0.861512
C      5.854438   -0.817782    0.793700
C      4.710707   -1.485640    0.478875
C      3.543738   -0.738629    0.213391
C      2.319345   -1.477483   -0.040952
C      2.609550   -2.751338   -0.863534
O      1.906338   -1.946035    1.258171
C      0.103967    1.481085   -0.826991
O      0.115258    2.723315   -0.739251
C     -1.050355    0.655536   -1.265825
O     -0.701931    0.183247   -2.554500
C     -2.171918    1.577079   -1.427143
O     -2.369999    2.132718   -2.530147
C     -3.050153    1.840455   -0.299363
C     -3.955714    2.796971   -0.287837
N     -4.808185    3.042195    0.824456
O     -4.067115    3.590093   -1.422299
C     -2.888548    0.984337    0.851240
O     -3.335252    1.367090    1.958885
H     -2.362461   -3.078483    0.156071
H     -1.838144   -2.598670    1.793074
H     -3.525945   -3.291847    1.567774
H     -4.493213   -0.456103   -0.566374
H     -5.086553   -1.924308    0.225829
H     -3.801929   -2.100083   -0.980109
H     -1.610988   -0.390624    1.730196
H     -1.863703   -1.269707   -1.071451
H     -0.112090   -2.334347   -0.166725
H      0.042159   -1.092829    1.148078
H      1.119802   -1.007576   -1.709127
H      1.869820    3.230821    0.723347
H      4.286122    3.454592    0.565208
H      6.825786    1.067484    1.114077
H      6.740509   -1.435898    0.993185
H      4.616831   -2.547841    0.413210
H      1.646207   -3.057910   -1.316112
H      2.927376   -3.523177   -0.166967
H      3.305317   -2.519644   -1.667578
H      1.963906   -1.203306    1.902026
H     -0.856403    0.954042   -3.187253
H     -5.776216    2.681637    0.876890
H     -4.426717    3.618164    1.625464
H     -5.010243    3.887571   -1.678822
