12

C     -0.299494   -1.350989    0.014102
C     -1.305512   -0.403185    0.042751
C     -1.030725    0.949724    0.029426
C      0.303716    1.342560   -0.014205
C      1.298465    0.393427   -0.042492
C      1.020641   -0.962959   -0.029061
H     -0.503080   -2.401536    0.024131
H     -2.338113   -0.723707    0.076564
H     -1.829947    1.678959    0.052268
H      0.505633    2.411645   -0.024246
H      2.329048    0.721994   -0.076272
H      1.849367   -1.655933   -0.052966
