46

C      5.375247    1.041379   -1.262475
C      4.372317    0.111421   -0.596400
C      4.475076   -1.246843   -1.275941
C      4.821543   -0.065910    0.832864
O      3.109552    0.677733   -0.720733
C      1.932826    0.144461   -0.248475
O      1.991146   -0.942913    0.345471
C      0.637728    0.803214   -0.419153
N      0.507039    1.994886   -1.053090
C     -0.777603    2.371994   -1.065923
N     -1.460051    1.417087   -0.440116
C     -2.870006    1.474649   -0.244789
C     -3.481338    2.336682   -1.146885
C     -4.850289    2.524500   -1.063353
C     -5.585452    1.877222   -0.116328
C     -5.005582    1.017730    0.787392
Br    -6.009537    0.101300    2.133145
C     -3.649274    0.839638    0.693850
C     -3.157059   -0.144564    1.686649
O     -3.848467   -0.213038    2.722250
N     -2.010577   -0.956761    1.514413
C     -1.843088   -2.225332    2.175077
C     -1.346259   -3.081374    0.999583
C     -0.915376   -2.085692   -0.089308
C     -0.803634   -0.828263    0.710419
C     -0.632923    0.413482   -0.013962
H      5.024824    2.082792   -1.054643
H      6.399095    0.895612   -0.820992
H      5.373176    0.905949   -2.355806
H      4.202682   -2.065227   -0.574413
H      5.510713   -1.461179   -1.611293
H      3.778372   -1.315220   -2.137982
H      4.539991   -1.047059    1.255456
H      5.940811    0.020355    0.857683
H      4.434722    0.773292    1.442692
H     -1.150716    3.279340   -1.494087
H     -2.913865    2.842544   -1.908475
H     -5.286057    3.208165   -1.789083
H     -6.648805    2.049013   -0.081541
H     -2.745866   -2.628353    2.626198
H     -1.062161   -2.189899    2.969976
H     -2.127076   -3.756658    0.629759
H     -0.453469   -3.612142    1.328918
H     -1.781341   -1.929796   -0.799449
H     -0.039370   -2.421092   -0.623276
H      0.028380   -0.987126    1.465260
