49

O     -2.271415    1.133442    1.527677
C     -2.536462    0.678099    0.210048
C     -1.520402    1.217600   -0.688789
C     -0.730216    0.112310   -1.347122
N      0.028999   -0.595750   -0.320710
C      0.647716   -1.782188   -0.888510
C      1.531540   -2.429119    0.132973
C      2.621617   -1.514709    0.562358
C      3.518232   -1.214460   -0.585390
O      3.378933   -1.661034   -1.735579
C      4.640224   -0.323024   -0.282396
C      5.535694   -0.033603   -1.275421
C      6.597821    0.803729   -1.017688
C      6.789253    1.369575    0.237389
F      7.851671    2.193147    0.451737
C      5.879130    1.064479    1.213964
C      4.806563    0.221843    0.959607
C     -0.862182   -1.009981    0.744929
C     -2.306953   -0.843156    0.285420
C     -3.938318    0.918287   -0.031590
C     -4.825046    0.439276    0.939776
C     -6.193495    0.617214    0.791234
C     -6.722270    1.261668   -0.300866
Br    -8.614267    1.484933   -0.466026
C     -5.871765    1.738442   -1.262359
C     -4.506812    1.554302   -1.102212
H     -2.823573    1.926658    1.746863
H     -1.851839    1.873632   -1.511439
H     -0.757187    1.828228   -0.126070
H     -1.344126   -0.534439   -1.973583
H      0.044613    0.622254   -1.973056
H      1.129524   -1.555963   -1.843271
H     -0.224251   -2.497360   -1.039298
H      0.999537   -2.755377    1.050219
H      1.958678   -3.401549   -0.277653
H      3.228540   -1.964335    1.407086
H      2.217393   -0.568552    0.999206
H      5.448963   -0.443969   -2.280372
H      7.322000    1.039112   -1.797471
H      5.996881    1.488382    2.202970
H      4.122788    0.026291    1.777923
H     -0.720044   -0.274130    1.580044
H     -0.722218   -2.027550    1.113104
H     -2.564145   -1.372858   -0.615287
H     -2.937508   -1.191900    1.136024
H     -4.457849   -0.073646    1.818612
H     -6.903374    0.266316    1.520593
H     -6.235322    2.263907   -2.155238
H     -3.855272    1.925523   -1.854239
