42

O     -1.003976    2.056629    0.243838
C     -0.807182    0.734676    0.340178
C     -2.043792   -0.099907    0.041903
C     -3.109766    0.344367    1.004935
C     -4.421315   -0.324886    0.695334
C     -4.750638   -0.265636   -0.757479
C     -3.594155   -0.728853   -1.617143
N     -2.498894    0.173616   -1.305809
C      0.485670    0.095763    0.210088
C      0.658707   -1.238492    0.594560
C      1.883029   -1.853683    0.652201
N      2.987139   -1.150890    0.334272
C      2.920407    0.144449   -0.043032
C      1.664598    0.771983   -0.110619
C      1.621363    2.060637   -0.545336
C      2.772595    2.728919   -0.901426
C      4.005552    2.102075   -0.828251
C      4.088704    0.801098   -0.397859
C      5.401427    0.110099   -0.237281
F      5.617334   -0.154152    1.139597
F      5.399228   -1.124727   -0.857499
F      6.430738    0.864104   -0.699444
C      2.000486   -3.287155    1.088516
F      3.160402   -3.478356    1.819024
F      0.862374   -3.638685    1.742315
F      2.066360   -4.009885   -0.080597
H     -1.006334    2.594153    1.042711
H     -0.895291    0.639745    1.550481
H     -1.850730   -1.136891    0.160961
H     -3.186080    1.455651    0.960369
H     -2.764225    0.086842    2.023705
H     -4.398231   -1.365798    1.105636
H     -5.226654    0.240617    1.252624
H     -5.627992   -0.892095   -0.994144
H     -4.943100    0.807950   -0.996392
H     -3.890183   -0.643605   -2.670074
H     -3.253827   -1.735822   -1.365035
H     -2.800798    1.178441   -1.438659
H     -0.202195   -1.823707    0.874878
H      0.671221    2.557064   -0.632580
H      2.673581    3.739372   -1.245532
H      4.904443    2.664974   -1.153935
