46

C      2.486024    0.268450   -2.886394
C      2.555336   -0.824217   -1.829469
C      1.258493   -1.587990   -1.867500
O      0.204840   -0.803111   -1.280168
C      0.425376   -0.202643   -0.035936
C     -0.642231    0.078151    0.788571
N     -1.983501   -0.213265    0.438513
C     -2.645066   -1.448042    0.735893
C     -4.114180   -1.222501    0.979911
N     -4.783068   -0.527248   -0.061891
C     -6.016183    0.060586    0.395105
C     -3.987525    0.309770   -0.875986
C     -2.726434    0.809975   -0.265800
C     -0.342661    0.673216    2.006960
F     -1.378265    0.958016    2.833410
C      0.957142    0.964821    2.366036
C      2.011914    0.675933    1.526424
C      3.317932    0.959692    1.869314
O      3.593645    1.496115    2.967127
C      4.357164    0.660402    1.012207
C      4.031911    0.069231   -0.193540
N      2.741814   -0.213058   -0.536671
C      1.739399    0.076823    0.293251
C      5.727762    0.963483    1.383745
O      6.811807    0.687336    0.567179
O      5.955376    1.500778    2.493641
H      1.759093    0.006172   -3.689157
H      2.117695    1.216923   -2.415009
H      3.461712    0.403839   -3.384686
H      3.368582   -1.545719   -2.044303
H      1.013538   -1.771840   -2.933639
H      1.337665   -2.578277   -1.338524
H     -2.214010   -1.931069    1.621474
H     -2.572245   -2.161680   -0.125648
H     -4.582091   -2.243925    1.063448
H     -4.310987   -0.727175    1.953467
H     -6.885677   -0.527025    0.035729
H     -6.095728    0.137298    1.485262
H     -6.168724    1.092704   -0.036999
H     -3.818295   -0.211987   -1.857907
H     -4.605203    1.213757   -1.149202
H     -2.879258    1.719760    0.343166
H     -2.056369    1.136977   -1.115187
H      1.142981    1.420451    3.308210
H      4.840698   -0.168160   -0.870238
H      7.589801    1.348270    0.494896
