48

C      1.171231   -2.421811   -0.128451
N      0.376590   -1.264676    0.136509
C      0.564983   -0.598981    1.406586
C      2.039321   -0.603690    1.731257
N      2.801345    0.086364    0.709393
C      4.205699    0.196183    0.818509
O      4.753059   -0.322608    1.824109
C      5.016046    0.899553   -0.218605
C      4.395557    1.675877   -1.162440
S      5.693225    2.244042   -2.109084
C      6.980405    1.489364   -1.291233
C      6.356106    0.806113   -0.289469
C      0.066431    0.834608    1.437572
N     -1.413926    0.865559    1.492858
C     -2.205170    0.376606    0.552740
C     -3.631785    0.450342    0.709867
C     -4.170420    1.230682    1.755533
C     -5.497756    1.228652    2.032020
C     -6.397506    0.464732    1.308363
C     -5.911949   -0.308755    0.285906
C     -4.542238   -0.288124    0.026094
F     -4.157758   -1.197508   -0.917684
C     -1.684873   -0.089593   -0.716335
C     -2.453370    0.325773   -1.810431
C     -2.024655   -0.078048   -3.046359
C     -0.878005   -0.862943   -3.219716
C     -0.117121   -1.268677   -2.132236
C     -0.538232   -0.871402   -0.912307
H      1.462687   -2.975147    0.802316
H      2.132141   -2.194696   -0.643671
H      0.593751   -3.212570   -0.699953
H      0.002449   -1.180125    2.156701
H      2.160495   -0.060450    2.700453
H      2.467595   -1.605862    1.889012
H      2.341081    0.518270   -0.131366
H      3.310031    1.872348   -1.263847
H      8.070150    1.524037   -1.496931
H      6.963875    0.202549    0.425839
H      0.369504    1.336578    0.500072
H      0.472784    1.318457    2.323399
H     -3.447145    1.820627    2.308180
H     -5.901762    1.831134    2.836757
H     -7.434241    0.519438    1.588630
H     -6.614056   -0.904043   -0.277494
H     -3.299385    0.964311   -1.598889
H     -2.628221    0.246514   -3.886114
H     -0.588433   -1.150818   -4.200318
H      0.771466   -1.868185   -2.193320
