54

C     -2.029726   -1.123961    0.703315
C     -2.084821    0.406050    0.559096
C     -2.530426    0.919880    1.900861
C     -3.971599    0.636637    2.203998
C     -4.887920    0.733393    1.078817
O     -6.118478    0.754462    1.289465
C     -4.384431    0.804273   -0.264096
C     -3.088789    0.654077   -0.513999
C     -2.693628    0.752485   -1.939255
C     -1.298669    0.369308   -2.260390
C     -0.411218    0.069376   -1.108645
C      1.048651    0.313343   -1.320286
C      1.629917   -0.318584   -2.529066
C      3.062268   -0.588411   -2.126115
C      3.161347   -0.277918   -0.628070
C      4.159939   -1.104890    0.034349
O      4.813088   -1.905736   -0.606154
C      4.405720   -0.994164    1.487641
O      5.467500   -1.854724    1.873503
C      1.743568   -0.476261   -0.211362
C      1.363037    0.160028    1.078992
C      0.300657    1.232364    0.978829
O     -0.053658    1.560665    2.277071
C     -0.811051    0.984278    0.062624
C      1.438063   -1.924667   -0.291746
O      1.490717   -2.586458    0.731659
H     -2.794536   -1.443411    1.472604
H     -2.371473   -1.624613   -0.232858
H     -1.070404   -1.470335    1.080893
H     -2.352877    1.990941    2.033865
H     -1.963919    0.298415    2.661114
H     -4.120213   -0.346873    2.707660
H     -4.310355    1.391111    2.974412
H     -5.107022    0.985433   -1.063578
H     -2.950504    1.789375   -2.276144
H     -3.377258    0.101849   -2.556038
H     -0.831359    1.246032   -2.803122
H     -1.253465   -0.448177   -3.041556
H     -0.533028   -0.998843   -0.840668
H      1.355749    1.364101   -1.207823
H      1.086145   -1.217462   -2.840274
H      1.674765    0.432846   -3.368943
H      3.208360   -1.689579   -2.208827
H      3.795209   -0.015793   -2.712687
H      3.385702    0.808943   -0.580325
H      3.490969   -1.254102    2.068473
H      4.714418    0.016035    1.821192
H      6.315993   -1.362711    1.710593
H      1.107175   -0.607877    1.836638
H      2.277798    0.684138    1.485596
H      0.863573    2.146472    0.607301
H     -0.043286    2.517237    2.462665
H     -1.085352    1.956699   -0.452438
H      1.169137   -2.444694   -1.198761
