51

C      4.054374    0.613901   -0.345326
C      4.287261    0.763899    1.003420
C      4.975987    1.842988    1.527797
C      5.444819    2.801797    0.665113
C      5.237023    2.695825   -0.685786
C      4.538468    1.594220   -1.179887
Cl     6.305690    4.162224    1.359310
Cl     5.260961    2.004057    3.269252
C      3.307165   -0.544867   -0.890312
C      1.851528   -0.252531   -1.052271
N      0.841304   -0.984731   -0.390477
C     -0.562444   -0.626319   -0.634505
C     -1.495311   -1.697338   -0.374728
C     -1.233189   -2.609651    0.619910
C      0.029045   -2.447184    1.395094
C      1.199082   -2.043387    0.510403
C     -2.113250   -3.659095    0.879121
C     -3.260333   -3.801727    0.145297
C     -3.524503   -2.888965   -0.852324
C     -2.662657   -1.860419   -1.106830
C     -0.851097    0.717370   -0.042913
N     -2.231997    1.133842   -0.201196
C     -2.341907    2.590749    0.073834
C     -3.869026    2.703227    0.189497
C     -4.323896    1.330562    0.690047
C     -2.989179    0.706718    1.021467
O      1.581562    0.704472   -1.830239
H      3.922935    0.010253    1.696474
H      5.612596    3.461966   -1.342628
H      4.403046    1.561449   -2.255371
H      3.481517   -1.404861   -0.221663
H      3.692880   -0.861518   -1.886844
H     -0.633631   -0.446389   -1.776725
H      0.233613   -3.464090    1.843716
H     -0.075496   -1.748678    2.246217
H      2.014706   -1.650405    1.169582
H      1.494915   -2.955041   -0.045526
H     -1.843495   -4.334320    1.671865
H     -3.911222   -4.624916    0.377381
H     -4.447779   -3.037201   -1.413222
H     -2.873629   -1.157320   -1.882547
H     -0.213461    1.476117   -0.558397
H     -0.645671    0.730838    1.055127
H     -1.996427    3.177468   -0.775123
H     -1.895131    2.811659    1.041785
H     -4.129136    3.490945    0.899905
H     -4.309105    2.884525   -0.793096
H     -4.815390    0.780647   -0.142846
H     -5.000296    1.414485    1.551507
H     -2.541877    1.281196    1.869567
H     -2.979940   -0.346447    1.193134
