50

C      3.130714    0.470795   -1.064265
C      3.753546    1.702309   -1.137164
C      4.834638    2.014935   -0.332652
C      5.349485    1.118300    0.585054
C      4.731584   -0.109181    0.660481
C      3.644756   -0.434200   -0.143738
C      6.506679    1.443873    1.459914
F      6.119593    1.373908    2.805128
F      7.568828    0.598862    1.243830
F      6.950144    2.730767    1.260633
C      1.957974    0.119983   -1.913886
C      0.683519    0.319942   -1.186834
N     -0.195735   -0.766280   -0.953129
C     -1.437980   -0.614838   -0.278207
C     -1.339581   -1.520008    0.957633
C     -1.426403   -2.934671    0.443412
C     -0.653270   -3.200043   -0.786338
C      0.138259   -2.108382   -1.388783
C     -1.806009    0.745311    0.195362
N     -3.109163    0.612387    0.836870
C     -3.640558    1.836443    1.300785
C     -5.045162    1.989355    0.698228
C     -5.387238    0.525460    0.402998
C     -4.047949   -0.001436   -0.047887
O      0.434667    1.497902   -0.796924
H      3.347752    2.406398   -1.864689
H      5.315915    2.997671   -0.405975
H      5.135030   -0.822222    1.385379
H      3.184764   -1.398114   -0.059843
H      2.038670   -0.868402   -2.353669
H      1.969370    0.876115   -2.741727
H     -2.235735   -0.992287   -0.960027
H     -0.394851   -1.276717    1.448916
H     -2.175459   -1.288796    1.613812
H     -2.527460   -3.140174    0.298365
H     -1.126058   -3.595111    1.285226
H     -1.352648   -3.628472   -1.566355
H      0.048898   -4.067211   -0.586931
H      1.235552   -2.245640   -1.146195
H      0.086150   -2.105137   -2.494919
H     -1.084423    1.204870    0.890226
H     -1.937547    1.459624   -0.643352
H     -3.806070    1.760987    2.415067
H     -3.010821    2.732770    1.107714
H     -5.749779    2.450530    1.393862
H     -4.945270    2.492024   -0.281452
H     -5.680821   -0.020536    1.328024
H     -6.161512    0.454889   -0.388356
H     -4.009664   -1.118384    0.019312
H     -3.879324    0.319831   -1.099492
