48

C      3.200360    0.693568   -0.966338
C      4.395519    0.062027   -0.735250
C      5.605043    0.760771   -0.822352
C      5.587216    2.112940   -1.148047
C      4.393102    2.746380   -1.379681
C      3.217569    2.028865   -1.285529
Cl     4.376010    4.437072   -1.786880
Cl     7.137311    2.938567   -1.242091
C      1.919303   -0.035325   -0.879018
C      1.413078    0.007638    0.508584
N      0.196136   -0.617662    0.898876
C     -0.629046   -1.303298   -0.040194
C     -1.164912   -2.600174    0.568745
C     -1.433382   -2.596215    1.907601
C     -1.231597   -1.386297    2.774581
C     -0.117826   -0.530384    2.319251
S     -1.990516   -4.179224    2.203332
C     -1.872682   -4.813847    0.627129
C     -1.395493   -3.759457   -0.096915
C     -1.669539   -0.540581   -0.748803
N     -2.673782    0.118129    0.004502
C     -2.213812    1.260832    0.717038
C     -2.899580    2.487678    0.121940
C     -3.294387    1.986811   -1.246371
C     -3.705260    0.560431   -0.916867
O      2.084310    0.616095    1.370203
H      4.382754   -0.990791   -0.482892
H      6.551012    0.271718   -0.642096
H      2.248783    2.517830   -1.466812
H      2.056107   -1.121145   -1.140003
H      1.185864    0.331214   -1.625622
H      0.112248   -1.623420   -0.868374
H     -2.201698   -0.865393    2.880986
H     -1.038271   -1.802982    3.811018
H     -0.238490    0.513251    2.671703
H      0.817940   -0.878804    2.860644
H     -2.115707   -5.829390    0.253791
H     -1.220199   -3.897488   -1.190822
H     -2.138300   -1.161158   -1.587635
H     -1.132935    0.258742   -1.353643
H     -2.342749    1.217681    1.798103
H     -1.117958    1.436123    0.499100
H     -3.842063    2.726923    0.664454
H     -2.218651    3.347710    0.039174
H     -4.169104    2.572926   -1.596551
H     -2.437750    2.019355   -1.925784
H     -3.665768   -0.037645   -1.858799
H     -4.708207    0.539404   -0.467383
