21

C      2.852657   -0.813840    0.014716
N      1.481432   -0.389699   -0.008536
C      0.490432   -1.141696    0.497911
O      0.810476   -2.269332    1.011855
N     -0.795358   -0.777389    0.492588
C     -1.828546   -1.626295    1.052709
C     -1.151943    0.402681   -0.042311
N     -2.354971    1.033503   -0.190647
C     -2.092407    2.195050   -0.800544
N     -0.775868    2.318940   -1.040731
C     -0.165073    1.207049   -0.574083
C      1.149636    0.795724   -0.549445
O      2.053911    1.546004   -1.043245
H      3.193704   -1.042181    1.059357
H      3.497044   -0.041635   -0.421691
H      3.024650   -1.753847   -0.568265
H     -2.047295   -2.504744    0.391099
H     -2.753420   -1.092703    1.258369
H     -1.476147   -2.082600    2.021841
H     -2.858277    2.921887   -1.055768
H     -0.254637    3.115124   -1.505178
