16

N     -3.118874   -0.327356   -0.030270
C     -1.697008   -0.094537   -0.079388
N     -1.252735    0.926636   -0.812748
C      0.051015    1.234724   -0.929427
S      0.602496    2.475834   -1.819717
C      0.962948    0.445909   -0.250719
N      2.315952    0.490642   -0.163596
C      2.687761   -0.516492    0.632102
N      1.595052   -1.180340    1.036962
C      0.482472   -0.605886    0.502589
N     -0.835351   -0.871309    0.585706
H     -3.568975   -0.690569    0.835947
H     -3.696604   -0.126796   -0.877563
H      2.904758    1.215006   -0.659304
H      3.739047   -0.705366    0.869083
H     -1.171955   -1.670100    1.160343
