55

C      1.957853   -0.143806    1.669193
C      1.570556    0.135986    0.264947
C      0.958984    1.463866    0.006679
C     -0.482643    1.566922    0.386022
O     -0.567287    1.531748    1.796926
C     -1.297925    0.425247   -0.180310
F     -1.113243    0.412858   -1.545711
C     -0.680260   -0.847175    0.370927
C     -1.534811   -2.075326    0.201549
C     -2.965099   -1.914689    0.577394
C     -3.426015   -0.679107   -0.204154
C     -4.375047   -0.791035   -1.094815
C     -4.849498    0.344972   -1.867271
O     -5.764797    0.207194   -2.717145
C     -4.226932    1.630475   -1.616824
C     -3.286875    1.686982   -0.717688
C     -2.753260    0.594776    0.106559
C     -3.005124    1.003631    1.554676
C      0.629450   -0.953004   -0.286352
C      1.470746   -2.155456   -0.032992
C      2.877436   -1.661929   -0.421359
O      3.268990   -2.314826   -1.597547
C      2.715315   -0.179344   -0.679739
O      2.190296   -0.030304   -2.009553
C      3.887527    0.644947   -0.515217
O      4.242433    1.300493   -1.524481
C      4.719535    0.807143    0.697814
O      5.845316    1.600806    0.403869
H      1.221508   -0.796365    2.227781
H      2.923749   -0.610433    1.846925
H      1.941837    0.823459    2.254822
H      1.115298    1.803308   -1.036651
H      1.514253    2.216434    0.641057
H     -0.873622    2.530096    0.005676
H     -0.485208    2.455623    2.154054
H     -0.561145   -0.670491    1.458760
H     -1.092862   -2.895684    0.802074
H     -1.427874   -2.392690   -0.863344
H     -3.078695   -1.660907    1.629855
H     -3.552338   -2.781325    0.264454
H     -4.802914   -1.787118   -1.236816
H     -4.550859    2.521372   -2.178305
H     -2.852833    2.691275   -0.575605
H     -2.517563    0.374301    2.290162
H     -2.815774    2.088242    1.630034
H     -4.115160    0.870335    1.701304
H      0.541167   -0.784441   -1.376920
H      1.445951   -2.536485    0.983425
H      1.171610   -2.962948   -0.731017
H      3.565910   -1.809521    0.398194
H      4.031287   -2.880761   -1.381947
H      2.522477    0.863630   -2.333496
H      4.107367    1.340829    1.458118
H      5.101803   -0.152600    1.052808
H      5.517011    2.530818    0.352577
