28

N      4.677581    1.133852    0.263692
S      3.917422   -0.400658    0.548059
O      4.648310   -1.434137   -0.240240
O      3.967083   -0.662677    2.006656
C      2.246156   -0.306865    0.023341
C      1.228306   -0.525396    0.929194
C     -0.096995   -0.458748    0.547504
C     -0.460063   -0.171444   -0.753065
N     -1.829309   -0.104649   -1.138205
C     -2.822450    0.302454   -0.156459
N     -2.897244   -0.712623    0.851274
S     -1.393589   -0.737289    1.702415
O     -1.210683   -2.093796    2.331229
O     -1.339799    0.296088    2.775152
C     -4.141046    0.621015   -0.793741
Cl    -3.866474    1.957980   -1.948029
Cl    -5.205406    1.277415    0.493712
C      0.574217    0.046389   -1.654765
C      1.901687   -0.018379   -1.281298
Cl     3.186477    0.260697   -2.439076
H      5.447948    1.319205    0.926021
H      3.936102    1.859341    0.244530
H      1.496100   -0.754471    1.964783
H     -2.063571   -0.351071   -2.110699
H     -2.480691    1.245101    0.358818
H     -3.110417   -1.642186    0.427722
H     -4.600124   -0.219654   -1.320436
H      0.290473    0.274506   -2.687115
