168

C      3.992586   -6.402536    1.124080
C      3.986960   -5.578218   -0.150417
C      3.104238   -6.094737   -1.222314
C      3.959464   -4.128448    0.143784
N      2.868979   -3.605934    0.897599
C      1.586230   -4.033689    1.162192
O      1.317038   -4.363356    2.383902
C      0.398397   -4.195048    0.269247
C      0.462025   -3.307806   -0.960248
O     -0.803484   -4.073130    0.946598
C     -1.835843   -4.811545    1.298923
O     -2.008554   -5.278979    2.483324
C     -2.937312   -5.191539    0.344637
N     -3.512064   -3.981951   -0.186530
C     -4.831911   -3.632037   -0.418663
O     -5.123131   -3.338077   -1.643173
C     -5.984570   -3.527477    0.478988
O     -5.970802   -2.325051    1.161531
C     -5.995600   -1.031787    0.834406
O     -5.023454   -0.292887    1.253788
C     -6.988487   -0.274916    0.042181
N     -6.453708   -0.084089   -1.288730
C     -5.958198    1.127389   -1.810534
O     -5.649980    1.216799   -3.032488
C     -5.753253    2.383982   -1.006503
C     -6.983160    3.212453   -1.177804
O     -4.558068    2.910545   -1.411508
C     -3.909190    4.020377   -1.639012
O     -3.934008    4.737753   -2.676563
C     -2.981387    4.600503   -0.586721
N     -1.624296    4.467178   -1.038143
C     -0.636269    5.433164   -1.277658
O     -0.165208    5.522600   -2.484277
C     -0.029808    6.392216   -0.330164
O      0.690736    5.736311    0.633677
C      1.867737    5.111822    0.756059
O      1.920981    3.865397    0.896621
C      3.151928    5.834261    0.737608
N      4.317973    5.035866    1.021020
C      5.086688    4.182977    0.255240
O      6.325636    4.560654    0.046660
C      4.774150    2.894497   -0.388106
C      4.006907    2.993991   -1.680932
O      4.219192    1.940387    0.493116
C      4.861827    0.961740    1.170929
O      4.313655    0.497603    2.219710
C      6.176165    0.349964    0.815205
N      6.261130   -1.013709    1.325533
C      6.756299   -2.114905    0.617390
O      7.422974   -2.975225    1.267235
C      6.501955   -2.250669   -0.828103
O      5.160845   -2.309052   -1.158894
C      4.265943   -3.332037   -1.090154
O      3.633461   -3.653415   -2.128947
C      7.339007   -3.392667   -1.347277
C      8.795035   -3.046425   -1.074013
C      7.147547   -3.623147   -2.823031
C      7.328321    1.126022    1.401127
C      8.634926    0.462594    1.012731
C      7.277312    1.158778    2.913366
C      3.320932    6.841926   -0.352888
C      3.227627    6.323982   -1.745113
C      4.737018    7.425273   -0.210896
C     -1.044516    7.288361    0.369026
C     -1.811040    8.130574   -0.634394
C     -0.240506    8.282095    1.209570
C     -3.222050    4.011741    0.776167
C     -3.036446    2.549633    0.902147
C     -4.563347    4.516123    1.261112
C     -8.338075   -0.925294   -0.080709
C     -9.171147    0.049820   -0.937949
C     -9.057385   -1.023631    1.244314
C     -6.134641   -4.620328    1.503103
C     -7.396482   -4.244932    2.310216
C     -6.563347   -5.922912    0.812725
C     -2.370846   -6.089526   -0.731988
C     -1.777935   -7.351736   -0.147243
C     -3.418095   -6.520732   -1.728951
H      4.673199   -7.276431    1.070400
H      4.418439   -5.735367    1.923586
H      2.998966   -6.782042    1.384121
H      5.042613   -5.764184   -0.559104
H      2.298256   -5.460535   -1.571467
H      3.651828   -6.465891   -2.137501
H      2.637491   -7.046460   -0.819569
H      4.910110   -3.958130    0.770740
H      3.132589   -2.663427    1.375650
H      0.471043   -5.238874   -0.098172
H     -0.364615   -2.562069   -0.967167
H      1.391701   -2.707905   -0.873892
H      0.503422   -3.923138   -1.849599
H     -3.720752   -5.805500    0.827558
H     -2.772839   -3.245199   -0.438885
H     -6.914399   -3.643490   -0.167572
H     -7.193878    0.725247    0.530032
H     -6.431850   -0.934026   -1.933587
H     -5.744404    2.039506    0.071838
H     -6.748719    4.230094   -1.559337
H     -7.535583    3.347212   -0.214330
H     -7.676068    2.729541   -1.861967
H     -3.214261    5.688124   -0.460445
H     -1.346239    3.448709   -1.230964
H      0.574628    7.106272   -0.951121
H      3.017209    6.522125    1.674150
H      4.672030    5.133127    2.048666
H      5.743235    2.371873   -0.711938
H      4.522393    3.633182   -2.423529
H      3.988256    1.980426   -2.200018
H      2.934950    3.214803   -1.538697
H      6.251150    0.393660   -0.286366
H      5.901764   -1.114173    2.322715
H      6.922627   -1.326267   -1.325776
H      7.120919   -4.332592   -0.814638
H      9.373323   -3.889629   -0.659999
H      9.309373   -2.740051   -2.025283
H      8.907551   -2.188768   -0.384142
H      6.444342   -2.858672   -3.225272
H      6.810969   -4.655286   -3.070894
H      8.124386   -3.504195   -3.344348
H      7.308903    2.184287    1.078503
H      8.839758   -0.426739    1.665787
H      8.638560    0.194478   -0.061221
H      9.453957    1.192884    1.188619
H      6.356176    1.642085    3.289897
H      8.204110    1.648955    3.274170
H      7.294884    0.115097    3.275806
H      2.661468    7.705748   -0.146908
H      2.913417    7.110665   -2.479975
H      2.507042    5.511445   -1.855969
H      4.219270    5.968572   -2.099768
H      4.702111    8.522594   -0.493562
H      5.398305    6.927269   -0.927697
H      5.028503    7.296656    0.842661
H     -1.690327    6.750922    1.071216
H     -2.826141    8.301481   -0.193523
H     -1.878849    7.572964   -1.591421
H     -1.291211    9.086162   -0.843696
H      0.489402    7.753715    1.849168
H      0.309126    8.960807    0.541079
H     -0.910154    8.845519    1.905924
H     -2.456262    4.509428    1.439889
H     -3.859588    2.166782    1.576530
H     -2.957972    1.966448   -0.015505
H     -2.105071    2.290756    1.491127
H     -5.217080    4.849934    0.433003
H     -5.036824    3.681428    1.841499
H     -4.466895    5.350813    1.998390
H     -8.355279   -1.856954   -0.657303
H     -8.755795    0.111016   -1.964443
H     -9.175841    1.057575   -0.525096
H    -10.209952   -0.330898   -1.039759
H     -9.561996   -2.012085    1.322016
H     -8.387565   -0.814839    2.099780
H     -9.873537   -0.276393    1.320540
H     -5.338596   -4.731339    2.217652
H     -8.211748   -4.206251    1.558163
H     -7.257894   -3.319532    2.865023
H     -7.606714   -5.135947    2.946940
H     -6.414767   -6.784869    1.492590
H     -5.923505   -5.994763   -0.104374
H     -7.589238   -5.790749    0.460121
H     -1.563758   -5.574803   -1.283693
H     -2.572864   -7.770208    0.541475
H     -0.930342   -7.090768    0.510379
H     -1.545251   -8.100548   -0.910779
H     -2.862440   -7.138954   -2.494711
H     -3.809753   -5.663492   -2.275507
H     -4.169164   -7.191728   -1.302654
