71

C      8.051676    0.976025   -3.823269
O      7.926157    0.232141   -2.645161
C      6.763214    0.278733   -1.872438
C      5.665107    1.039663   -2.197070
C      4.512542    1.074089   -1.412492
C      4.451541    0.323761   -0.264912
C      3.251712    0.298751    0.625439
C      2.240834   -0.691096    0.158257
N      1.076878   -0.861745    0.937618
C      1.458598   -1.512553    2.212859
C      0.334149    0.317089    1.305461
C     -0.951352   -0.192993    1.993465
C     -1.742012   -1.032453    1.107930
C     -2.534481   -0.657306   -0.036459
C     -3.019879   -1.923988   -0.688901
N     -3.407359   -2.909833   -1.192218
C     -2.179943    0.306443   -1.059122
C     -2.044021    1.759473   -0.582300
C     -0.911843   -0.056230   -1.835483
C     -3.924474   -0.153849    0.476870
C     -4.208918   -0.015265    1.782381
C     -5.489830    0.413473    2.186414
C     -6.439186    0.687821    1.232967
O     -7.728255    1.117459    1.601112
C     -8.013340    1.255342    2.989577
C     -6.134389    0.542719   -0.100879
O     -7.104359    0.826489   -1.038333
C     -6.979421    0.740174   -2.425036
C     -4.849124    0.111805   -0.487917
C      5.565584   -0.452067    0.070713
C      6.704008   -0.482357   -0.709476
O      7.818826   -1.264497   -0.362597
C      7.830870   -2.035802    0.814508
H      7.561243    0.434839   -4.658161
H      7.613704    1.988400   -3.735284
H      9.131257    1.113497   -4.069457
H      5.700438    1.638522   -3.109525
H      3.671205    1.694855   -1.719247
H      2.824599    1.323883    0.605498
H      3.547985    0.114100    1.672491
H      2.699419   -1.717459    0.014249
H      1.964175   -0.423057   -0.916261
H      2.501555   -1.929570    2.096446
H      0.717623   -2.310447    2.382389
H      1.498271   -0.744589    3.001951
H      0.932743    0.858252    2.131684
H      0.192469    1.058626    0.557578
H     -1.438967    0.658102    2.505318
H     -0.529402   -0.796831    2.860815
H     -1.051450   -1.900159    0.755358
H     -2.438217   -1.667780    1.781327
H     -2.952966    0.335677   -1.849524
H     -2.076726    1.790730    0.526891
H     -2.971755    2.311852   -0.896300
H     -1.222288    2.294095   -1.051364
H     -0.229604    0.806835   -1.789781
H     -1.136633   -0.267289   -2.896132
H     -0.407836   -0.923710   -1.417958
H     -3.526211   -0.220301    2.571378
H     -5.752910    0.530676    3.219087
H     -7.790777    0.238261    3.427922
H     -7.307886    1.969489    3.493727
H     -9.056673    1.557307    3.185557
H     -6.842746   -0.313975   -2.713796
H     -7.925896    1.120970   -2.876038
H     -6.125799    1.374970   -2.781620
H     -4.738358    0.019886   -1.554790
H      5.505948   -1.041931    0.996457
H      7.028191   -2.806176    0.825895
H      7.649311   -1.340940    1.676913
H      8.793459   -2.538201    0.984796
