13

C      1.636096    0.465833    0.366113
C      0.638909   -0.644588    0.065495
C     -0.565969   -0.043314   -0.552415
C     -1.867653    0.026135    0.127140
O     -0.439890    0.408064   -1.677072
H      1.482320    1.250448   -0.401891
H      1.506722    0.828868    1.405423
H      2.682657    0.107439    0.289943
H      1.135112   -1.263119   -0.739387
H      0.425357   -1.259841    0.952947
H     -2.546362    0.742978   -0.374516
H     -2.369762   -0.972358    0.181804
H     -1.717536    0.353455    1.198210
