12

F      2.397939   -0.557479   -1.391701
C      1.798181    0.156990   -0.347692
F      2.456890    1.339327   -0.197914
O      0.442884    0.328218   -0.608752
C     -0.357454   -0.320571    0.319253
F     -0.152208    0.129810    1.610029
F     -0.222589   -1.697266    0.255258
C     -1.799059    0.062097   -0.027558
F     -2.663587   -0.546111    0.854471
Cl    -1.903077    1.837463    0.044769
H      1.976135   -0.471540    0.560993
H     -1.974055   -0.260937   -1.071155
