30

C      1.722465   -0.104640   -1.032320
C      2.021094    0.983554   -0.015011
N      3.459065    0.823124    0.315873
C      1.280899    0.705625    1.246431
O     -0.093303    0.809718    1.238558
C     -0.946799    0.109813    0.449849
C     -1.361831    0.643413   -0.753646
C     -0.946586    1.988500   -1.246830
C     -2.228196   -0.127434   -1.506350
C     -2.675977   -1.369742   -1.105655
C     -2.226365   -1.845143    0.104229
C     -1.364319   -1.136345    0.906664
C     -0.895696   -1.678300    2.211182
H      1.286145    0.298526   -1.957129
H      1.096314   -0.874908   -0.567885
H      2.683454   -0.584645   -1.337486
H      1.844377    1.946271   -0.487224
H      4.038667    1.230985   -0.458700
H      3.665915   -0.205728    0.439865
H      1.671617    1.453020    2.006780
H      1.622408   -0.327889    1.572883
H     -0.370197    1.983122   -2.166045
H     -1.916952    2.537507   -1.426260
H     -0.455556    2.559662   -0.435538
H     -2.565236    0.266657   -2.448610
H     -3.357637   -1.953667   -1.719024
H     -2.570930   -2.825781    0.436502
H     -0.862578   -0.834891    2.961702
H      0.110063   -2.096528    2.175941
H     -1.664326   -2.373860    2.597255
