53

C      4.082939    0.777640    0.118363
C      4.354823    2.053817   -0.287523
C      5.345093    2.783490    0.318852
C      6.087782    2.241742    1.353136
C      5.822371    0.970270    1.763185
C      4.836769    0.253043    1.154801
Cl     6.748161    0.281006    3.058876
Cl     7.347880    3.201497    2.109973
C      3.009099    0.000686   -0.550447
C      1.698752    0.264088    0.128774
N      0.549306   -0.390287   -0.356583
C     -0.780651   -0.223478    0.201381
C     -1.276957    1.104860   -0.387046
N     -2.531076    1.486336   -0.003902
C     -2.859014    1.873013    1.282757
C     -4.283756    2.417456    1.150080
C     -4.577336    2.412984   -0.339677
C     -3.650883    1.320701   -0.841259
C     -1.718041   -1.282936   -0.291108
C     -1.137348   -2.648561   -0.420654
C      0.301769   -2.672018   -0.878855
C      0.600975   -1.320194   -1.490248
C     -1.906987   -3.451353   -1.482249
C     -1.308706   -3.444100    0.874571
O      1.659037    1.043920    1.091392
H      3.790036    2.498813   -1.091312
H      5.560428    3.784584    0.002246
H      4.600599   -0.764733    1.461168
H      2.898314    0.368040   -1.607677
H      3.234740   -1.067184   -0.571228
H     -0.769952   -0.116279    1.294176
H     -1.184012    1.009397   -1.487589
H     -0.514326    1.887525   -0.096019
H     -2.199095    2.595571    1.778040
H     -2.905535    0.966946    1.953178
H     -4.289578    3.453168    1.495670
H     -5.003687    1.764167    1.674960
H     -5.615270    2.099576   -0.563759
H     -4.320251    3.383912   -0.812006
H     -3.386396    1.447471   -1.902906
H     -4.145783    0.356273   -0.612587
H     -2.199258   -0.965432   -1.254495
H     -2.543375   -1.350854    0.474851
H      0.509614   -3.487446   -1.597198
H      0.933636   -2.783782    0.050561
H      1.579164   -1.286140   -1.991608
H     -0.225900   -1.019447   -2.166209
H     -1.494016   -3.236825   -2.494827
H     -2.970576   -3.198583   -1.467994
H     -1.689907   -4.505796   -1.272741
H     -1.221267   -2.773613    1.757435
H     -0.519456   -4.208391    0.920872
H     -2.322891   -3.904556    0.850408
