42

O     -5.702708   -2.211443    1.102322
C     -5.290523   -1.095894    0.392447
O     -6.159595   -0.367236   -0.101372
C     -3.853124   -0.848788    0.270843
C     -3.350391    0.237329   -0.417653
N     -2.062263    0.513630   -0.562088
C     -1.584375    1.671419   -1.297548
C     -2.553380    2.762041   -1.614961
C     -1.379681    2.971241   -0.666228
C     -1.165630   -0.332100    0.008122
C      0.191927   -0.088221   -0.113534
C      1.153080   -0.908853    0.442161
N      2.517772   -0.571200    0.260088
C      3.332830   -0.321331    1.407726
C      4.431358    0.694576    1.133714
N      5.137788    0.213964   -0.052706
C      4.245839    0.431336   -1.175292
C      3.063372   -0.484236   -1.063987
C      0.719407   -2.007951    1.140876
F      1.656134   -2.822359    1.691897
C     -0.632012   -2.275152    1.277764
C     -1.575474   -1.442938    0.715051
C     -2.929061   -1.695771    0.842590
O     -3.354763   -2.694881    1.476907
H     -6.572571   -2.682980    0.845075
H     -4.076926    0.899405   -0.864684
H     -0.908377    1.414060   -2.163754
H     -2.522550    3.253045   -2.613022
H     -3.523962    2.847238   -1.119327
H     -1.578627    3.178153    0.398238
H     -0.590173    3.640147   -1.095619
H      0.464705    0.809133   -0.686143
H      3.855477   -1.271416    1.666520
H      2.793662    0.020742    2.296267
H      5.090906    0.678187    2.027882
H      4.006390    1.683184    0.935880
H      5.332966   -0.801960   -0.007638
H      4.762445    0.207426   -2.129962
H      3.952061    1.515012   -1.225321
H      3.351542   -1.467659   -1.471521
H      2.269564   -0.088304   -1.731144
H     -0.963057   -3.160593    1.841132
