32

C      4.048166   -0.051980    1.564658
C      3.183194   -0.013885    0.360200
C      1.790076   -0.086025    0.457014
N      0.989488   -0.053764   -0.612656
C     -0.424164   -0.122903   -0.575775
C     -1.005065   -1.002247    0.479154
C     -2.474305   -0.559739    0.475207
N     -3.296870   -1.486906   -0.252464
N     -3.405732   -2.647441    0.103256
N     -3.606339   -3.840008    0.242056
C     -2.386333    0.708559   -0.349044
C     -3.309974    1.780688    0.170545
O     -3.060233    2.110918    1.478770
O     -1.038836    1.115154   -0.284108
C      1.592643    0.054660   -1.832803
O      0.881610    0.088702   -2.865044
N      2.921451    0.126836   -1.976473
C      3.725488    0.094524   -0.903575
O      4.990132    0.159852   -0.988799
H      4.371368   -1.116069    1.730266
H      4.957023    0.529700    1.387161
H      3.552041    0.350165    2.468024
H      1.344679   -0.171006    1.433510
H     -0.837818   -0.437758   -1.554625
H     -0.615463   -0.731007    1.475853
H     -0.932169   -2.079560    0.261734
H     -2.842835   -0.380727    1.499511
H     -2.582549    0.515432   -1.423967
H     -3.178631    2.662776   -0.501155
H     -4.345265    1.424136   -0.006954
H     -2.379461    2.848238    1.469917
H      3.374684    0.210684   -2.929395
