58

C     -3.577020    4.419291   -0.238964
C     -4.824913    3.628857   -0.229403
O     -5.920518    4.266378   -0.349353
C     -4.845374    2.166709   -0.089044
C     -6.050646    1.509758   -0.092795
C     -6.043053    0.121237    0.043388
C     -4.899510   -0.568533    0.175549
S     -4.994386   -2.333225    0.331895
C     -3.312131   -2.901451    0.464895
C     -3.139818   -4.251355    0.596756
C     -1.875159   -4.764686    0.714110
C     -0.780819   -3.932363    0.700100
C     -0.958721   -2.583045    0.567928
C     -2.222085   -2.040772    0.447549
N     -2.422203   -0.642075    0.312840
C     -1.180625    0.148578    0.283163
C     -0.516510    0.036075   -1.054123
C      0.748665    0.812994   -1.168908
N      1.801050    0.473537   -0.276421
C      2.898011    1.416634   -0.557879
C      4.066548    1.158634    0.366512
N      4.566961   -0.143903    0.107936
C      5.978358   -0.212412   -0.141584
C      6.807398    0.106378    1.081003
O      6.542908   -0.779835    2.123290
C      3.774820   -0.910296   -0.812230
C      2.338637   -0.835201   -0.423937
C     -3.667311    0.034102    0.186502
C     -3.690178    1.432415    0.048035
H     -3.775749    5.390889   -0.700793
H     -2.816019    3.832873   -0.830451
H     -3.248822    4.540545    0.828105
H     -6.988958    2.041005   -0.196614
H     -6.997210   -0.375441    0.037677
H     -3.961389   -4.955862    0.613361
H     -1.739976   -5.852908    0.820631
H      0.213608   -4.379942    0.796283
H     -0.089806   -1.968965    0.569058
H     -1.306232    1.204553    0.509345
H     -0.479529   -0.234341    1.070624
H     -0.383107   -0.960107   -1.461374
H     -1.227830    0.533912   -1.807999
H      0.548755    1.907101   -1.044681
H      1.105721    0.707935   -2.229600
H      3.190017    1.389946   -1.624266
H      2.446694    2.423391   -0.356195
H      4.841162    1.907698    0.110525
H      3.682047    1.306463    1.395544
H      6.238533   -1.228619   -0.493123
H      6.218428    0.490495   -0.964217
H      6.737340    1.161527    1.378840
H      7.879465   -0.062828    0.789760
H      6.090240   -0.360070    2.889677
H      3.899018   -0.491028   -1.835012
H      4.097484   -1.972685   -0.870382
H      1.769196   -1.483051   -1.123006
H      2.226799   -1.346416    0.578847
H     -2.772254    2.001507    0.032624
