54

C     -3.538403   -3.156355    1.087385
C     -3.365901   -1.919379    0.235778
C     -1.929262   -1.527381    0.201010
O     -1.106174   -2.231154    0.803322
O     -1.456361   -0.437525   -0.451904
C     -0.089144   -0.039608   -0.491962
C     -0.068723    1.211093   -1.311249
C     -0.925984    2.319256   -0.838263
C     -0.558914    3.405600   -0.098170
C     -1.441747    4.386065    0.316127
C     -2.786469    4.317439   -0.007410
C     -3.182698    3.231519   -0.753919
C     -2.304328    2.255402   -1.165810
C      0.614333    0.016008    0.765006
C     -0.095660    0.947725    1.763953
C      2.026404    0.548504    0.579523
N      2.746261    0.609409    1.840517
C      3.011224   -0.689313    2.418005
C      4.082038    1.134783    1.486596
C      0.491701   -1.186112   -1.318060
C      0.019735   -1.385276   -2.599809
C      0.496477   -2.422338   -3.389760
C      1.444418   -3.247821   -2.878634
C      1.944495   -3.092379   -1.613507
C      1.433789   -2.023831   -0.837665
H     -2.612835   -3.749284    1.047260
H     -3.655526   -2.882237    2.181928
H     -4.358354   -3.804016    0.750087
H     -3.672136   -2.165961   -0.785626
H     -3.997352   -1.094096    0.642569
H     -0.215795    1.041102   -2.419189
H      0.983702    1.673465   -1.327689
H      0.512030    3.471761    0.171282
H     -1.108410    5.231038    0.904724
H     -3.494244    5.067189    0.309819
H     -4.240148    3.118916   -1.044800
H     -2.595704    1.394007   -1.756630
H      0.773582   -0.979734    1.276409
H     -1.117893    1.183390    1.470270
H     -0.098259    0.422898    2.783448
H      0.474169    1.861691    1.963055
H      1.994488    1.638814    0.269331
H      2.640383    0.070439   -0.168301
H      2.100667   -1.112651    2.878664
H      3.498791   -1.402240    1.728240
H      3.731967   -0.495675    3.262539
H      4.677702    1.349672    2.379295
H      4.030981    1.934405    0.732492
H      4.569160    0.261110    0.969767
H     -0.738973   -0.720655   -2.961854
H      0.090313   -2.519509   -4.381127
H      1.805963   -4.051938   -3.511343
H      2.690849   -3.764228   -1.246508
H      1.869774   -2.002004    0.140787
