30

Cl     0.000000    0.000000    0.000000
N      2.657735    0.319285   -0.378029
C      1.254965    0.106094   -0.245464
C      0.686333   -0.924951   -1.166579
C     -0.811731   -0.981243   -0.972159
C     -1.466401    0.369702   -1.152125
C     -0.909193    1.339268   -0.140962
C     -1.125906    0.842490    1.261951
C     -0.491338   -0.532361    1.416992
C     -1.148445   -1.451699    0.428828
C      0.993277   -0.379775    1.184457
C      0.571111    1.450726   -0.377272
H      0.000000    0.000000    0.000000
H      3.266871   -0.279356    0.174603
H      2.984904    0.602710   -1.304718
H      0.962460   -0.823546   -2.212363
H      1.076959   -1.921325   -0.822183
H     -1.249537   -1.718247   -1.675296
H     -1.285409    0.754902   -2.169084
H     -2.540837    0.235455   -0.912168
H     -1.366017    2.330864   -0.269768
H     -0.642295    1.498467    1.989872
H     -2.220431    0.721720    1.444668
H     -0.646911   -0.872748    2.447129
H     -2.260904   -1.281774    0.533779
H     -0.956080   -2.513138    0.593389
H      1.341381    0.430646    1.854075
H      1.494445   -1.348001    1.381277
H      0.996548    2.096379    0.422343
H      0.834448    1.929456   -1.335194
