44

C      5.083856    0.164875    0.959650
N      4.017939   -0.569332    0.360239
C      3.746801   -1.842437    0.924079
C      2.888393    0.204320   -0.008106
C      1.783632   -0.670083   -0.647786
C      0.681306    0.271862   -0.975227
C     -0.586850    0.202528   -0.729406
C     -1.101770   -0.975678   -0.028592
C     -0.582912   -2.141875   -0.537041
C     -0.943125   -3.338662    0.013057
C     -1.837478   -3.312443    1.080444
C     -2.351986   -2.102678    1.575084
C     -1.992740   -0.899657    1.026658
C     -2.649719    0.244904    1.648700
C     -3.223588    1.277910    0.784771
C     -2.547042    1.798096   -0.388433
C     -3.219819    2.954105   -0.875103
C     -2.777192    3.591521   -1.993530
C     -1.670366    3.110874   -2.656806
C     -0.990140    1.994224   -2.218587
C     -1.444006    1.362840   -1.090524
H      5.901066    0.416141    0.257311
H      5.472805   -0.431495    1.819215
H      4.672940    1.096986    1.407528
H      2.850564   -1.793365    1.566089
H      3.575541   -2.648584    0.189053
H      4.584906   -2.194266    1.572656
H      2.436159    0.641628    0.903569
H      3.137172    1.002828   -0.725360
H      1.457397   -1.331898    0.149085
H      2.175794   -1.089153   -1.565713
H      0.992490    1.196547   -1.508839
H      0.072199   -2.087279   -1.380444
H     -0.554873   -4.287354   -0.351435
H     -2.113792   -4.260493    1.505794
H     -3.044170   -2.155267    2.407152
H     -3.403549   -0.085188    2.419059
H     -1.856764    0.744024    2.286644
H     -3.607317    2.137583    1.407082
H     -4.208307    0.836766    0.393924
H     -4.067173    3.276966   -0.321964
H     -3.283842    4.491456   -2.388763
H     -1.326058    3.616248   -3.537628
H     -0.146383    1.581957   -2.727554
