34

C     -1.307208   -2.649714    0.143947
C     -1.943671   -1.498060   -0.528593
C     -1.468859   -0.137601   -0.244295
C     -0.047123    0.186289   -0.565336
C      0.993176   -0.619044    0.127822
C      2.395422   -0.141499   -0.291320
C      3.415224   -0.969065    0.421149
C      2.574017    1.327923   -0.025167
C     -2.288566    0.784982   -1.124838
O     -3.097984    0.371608   -1.975299
N     -2.107174    2.197394   -0.953318
C     -1.727313    2.683192    0.328115
O     -1.556085    3.906942    0.530715
N     -1.546443    1.729674    1.380494
C     -1.745390    0.341965    1.132255
O     -2.132918   -0.370611    2.071746
H     -2.144241   -3.355029    0.460746
H     -0.704686   -3.304402   -0.536086
H     -0.786844   -2.443574    1.095530
H     -1.786978   -1.656853   -1.644443
H     -3.054022   -1.552445   -0.432569
H      0.181667    1.263101   -0.330259
H      0.108741    0.095253   -1.668369
H      0.953415   -1.649435   -0.282960
H      0.938960   -0.656332    1.211603
H      2.481933   -0.344609   -1.392297
H      4.343767   -0.373257    0.529498
H      3.054733   -1.300597    1.434581
H      3.632131   -1.916373   -0.124001
H      3.648547    1.543712    0.132870
H      2.227502    1.902029   -0.927876
H      2.011475    1.692049    0.852718
H     -2.252748    2.863647   -1.761742
H     -1.262457    2.048738    2.355551
