35

C      3.755411   -0.722957   -1.144224
N      2.645534   -0.808725   -0.257327
C      2.438399   -1.947429    0.579830
O      3.183715   -2.916029    0.347445
C      1.426746   -2.082642    1.691717
N      0.087384   -1.815428    1.184204
C     -0.384379   -0.810874    0.483705
C     -1.759421   -0.800086    0.102710
C     -2.452075    0.024691   -0.705033
C     -3.818012   -0.068610   -0.890359
C     -4.563210   -1.027415   -0.252153
C     -3.893994   -1.892669    0.580294
C     -2.538492   -1.787221    0.755451
F     -1.974624   -2.690791    1.598478
C      0.432852    0.339760    0.147990
C     -0.265894    1.523810    0.217936
C      0.358646    2.705092   -0.120343
C      1.670823    2.675251   -0.518309
C      2.407206    1.511798   -0.596583
C      1.781195    0.339673   -0.258214
N     -0.405086    3.896093   -0.035774
O      0.153658    5.103624   -0.358282
O     -1.595021    3.895872    0.328690
H      3.513174   -0.212432   -2.108160
H      4.061427   -1.747845   -1.427977
H      4.630326   -0.265730   -0.642717
H      1.672760   -1.432553    2.549541
H      1.425965   -3.143559    1.977526
H     -1.913703    0.763956   -1.289514
H     -4.301608    0.651349   -1.569178
H     -5.619023   -1.125335   -0.374287
H     -4.472172   -2.657781    1.091224
H     -1.277770    1.492752    0.598000
H      2.155051    3.603098   -0.783947
H      3.434213    1.429290   -0.902360
