19

C     -0.972564    1.986434    0.228901
N      0.005543    0.916287    0.048080
C      1.300783    1.238792   -0.079142
C      2.254712    0.257949   -0.251255
C      1.918685   -1.085503   -0.299331
O      2.779629   -1.997005   -0.456360
C      0.582406   -1.395915   -0.166644
C     -0.337329   -0.366704    0.004669
C     -1.764805   -0.760070    0.142231
O      0.212802   -2.733711   -0.210508
H     -0.480325    2.930820    0.508321
H     -1.663825    2.067811   -0.621497
H     -1.607574    1.708164    1.120150
H      1.599241    2.294210   -0.045297
H      3.291026    0.540322   -0.351491
H     -2.428624    0.132613    0.118835
H     -1.850513   -1.327149    1.098038
H     -2.065792   -1.467145   -0.676646
H     -0.773476   -2.940200   -0.111054
