28

C      3.541936   -0.572125   -0.051583
C      2.936397    0.584911   -0.758438
C      1.434457    0.551159   -0.829097
C      0.785711    0.539474    0.524386
N     -0.640520    0.506929    0.372830
C     -1.291680    1.705225    0.299305
C     -2.660492    1.784326    0.152266
C     -3.387185    0.620553    0.077915
O     -4.636993    0.635063   -0.056182
C     -2.765897   -0.606563    0.148346
C     -1.383157   -0.609943    0.296672
C     -0.703534   -1.923153    0.374825
O     -3.473295   -1.818344    0.076203
H      4.358611   -0.170066    0.614869
H      2.865162   -1.187775    0.534649
H      4.085200   -1.276555   -0.747393
H      3.288745    1.561031   -0.355971
H      3.301613    0.563556   -1.821176
H      1.125487    1.522724   -1.316335
H      1.082417   -0.301792   -1.404865
H      1.064995    1.449079    1.126921
H      1.116724   -0.318143    1.123769
H     -0.719901    2.619818    0.357830
H     -3.148860    2.761782    0.096874
H     -1.453590   -2.750559    0.546432
H     -0.011367   -2.006854    1.242053
H     -0.237544   -2.128438   -0.593719
H     -4.473443   -1.735321   -0.031387
