31

C      3.867258    0.754452   -0.947876
C      3.502530   -0.684213   -0.680621
C      2.432849   -0.801704    0.373973
C      1.159870   -0.065157   -0.078328
C      0.174554   -0.238429    1.019882
N     -1.114356    0.371617    0.815167
C     -1.362499    1.654877    1.122694
C     -2.593730    2.230749    0.902247
C     -3.639766    1.526411    0.355074
O     -4.775827    2.012528    0.137645
C     -3.390065    0.179723    0.029418
C     -2.133623   -0.350251    0.272127
C     -1.860470   -1.758309   -0.037131
O     -4.454803   -0.503835   -0.517289
H      3.057870    1.317734   -1.442827
H      4.077189    1.231885    0.029835
H      4.729927    0.756947   -1.623943
H      4.401498   -1.190198   -0.307266
H      3.152932   -1.214766   -1.572867
H      2.150552   -1.867546    0.450791
H      2.725314   -0.410484    1.351338
H      1.430087    1.002662   -0.236308
H      0.901823   -0.474965   -1.047603
H      0.035727   -1.315024    1.195170
H      0.651833    0.174516    1.952555
H     -0.561779    2.249781    1.558399
H     -2.799139    3.273782    1.150986
H     -1.683928   -2.349152    0.903848
H     -0.966525   -1.812996   -0.685256
H     -2.704961   -2.255039   -0.523180
H     -4.410341   -1.445598   -0.785711
