48

C      6.034774    1.446784   -0.401317
N      4.651841    1.481445    0.076503
C      4.442365    0.312276    0.886373
C      3.015783    0.122445    1.299132
N      2.084867    0.290042    0.195310
C      2.343033    1.355607   -0.738474
C      3.808404    1.454773   -1.102311
C      0.974310   -0.594246    0.087340
C     -0.329045   -0.164734    0.111181
C     -1.388556   -1.032287    0.005737
N     -2.676269   -0.605735    0.029529
C     -3.694682   -1.491657   -0.077155
C     -3.472844   -2.843872   -0.212443
C     -4.610445   -3.747529   -0.322774
O     -5.903993   -3.249742   -0.291764
O     -4.480529   -4.988114   -0.448019
C     -2.163071   -3.268101   -0.235651
O     -1.908532   -4.486439   -0.356696
C     -1.089025   -2.383273   -0.128217
C      0.215209   -2.818420   -0.152622
C      1.278279   -1.947095   -0.046735
F      2.571357   -2.363729   -0.069416
C     -2.906695    0.769871    0.167126
C     -2.673447    1.619316   -0.895367
C     -2.877343    2.980833   -0.833019
C     -3.340083    3.549475    0.346734
F     -3.540343    4.892698    0.405494
C     -3.580118    2.723801    1.420174
C     -3.369824    1.364825    1.337230
H      6.206932    0.383210   -0.721518
H      6.164967    2.132012   -1.266283
H      6.750533    1.768248    0.375557
H      5.036439    0.463762    1.831412
H      4.857190   -0.594275    0.370676
H      2.924040   -0.877906    1.771607
H      2.772128    0.948011    2.023193
H      1.983318    2.340221   -0.396526
H      1.800505    1.121656   -1.677616
H      4.134299    0.614598   -1.751901
H      3.942555    2.433674   -1.613137
H     -0.525336    0.879328    0.215248
H     -4.692036   -1.074433   -0.049819
H     -6.690675   -3.791101    0.090885
H      0.419379   -3.876410   -0.257999
H     -2.308627    1.227808   -1.848857
H     -2.682869    3.604358   -1.683994
H     -3.940055    3.164099    2.338669
H     -3.568064    0.753924    2.194519
