26

C      1.356605    1.393274   -0.710856
N      1.289762    0.121649   -0.036909
N      0.160745   -0.491590    0.270731
C      0.477122   -1.651426    0.891403
O     -0.298077   -2.534169    1.347703
C      1.852566   -1.758054    0.969786
C      2.337233   -0.609386    0.367724
C      3.795379   -0.324275    0.239493
C     -1.186200   -0.094695    0.038752
C     -1.811750   -0.301699   -1.173319
C     -3.116117    0.079241   -1.407524
C     -3.860809    0.693201   -0.422383
C     -3.250078    0.907381    0.795068
C     -1.945628    0.525909    1.027868
H      0.836872    2.203898   -0.190192
H      2.422913    1.710102   -0.851951
H      0.966408    1.240004   -1.744984
H      2.454676   -2.553947    1.401800
H      4.181178    0.185823    1.128763
H      4.350391   -1.284730    0.052998
H      4.011905    0.334394   -0.630146
H     -1.232659   -0.782540   -1.949005
H     -3.604587   -0.084539   -2.359956
H     -4.901536    1.000262   -0.600503
H     -3.833034    1.388107    1.566684
H     -1.453280    0.687808    1.978957
