46

F      8.417020    2.312681    0.042752
C      7.241548    1.650362   -0.144759
C      6.240388    1.702272    0.777100
C      5.048398    1.018896    0.571128
C      4.826142    0.266310   -0.560220
C      5.876900    0.241525   -1.475796
C      7.055297    0.905689   -1.292760
C      3.616695   -0.474782   -0.837264
O      3.532951   -1.111797   -1.920621
C      2.481239   -0.513640    0.096294
C      1.480744    0.550403   -0.359950
C      0.288884    0.559722    0.571436
N     -0.407592   -0.692569    0.620846
C     -1.096491   -1.063390   -0.571552
C     -2.453668   -1.716236   -0.258650
N     -3.211616   -0.687863    0.412948
C     -2.524450    0.075844    1.435428
C     -1.266055   -0.685429    1.788807
C     -4.572328   -0.379853    0.142869
C     -5.335936   -1.098741   -0.746930
C     -6.674728   -0.796065   -1.021803
C     -7.207116    0.284780   -0.341323
C     -6.445395    1.014088    0.556444
N     -5.180924    0.669233    0.767531
H      6.356621    2.269484    1.670817
H      4.257420    1.083439    1.332909
H      5.736606   -0.338067   -2.372643
H      7.856086    0.870566   -2.020641
H      2.839892   -0.288242    1.113900
H      1.981421   -1.521134    0.078247
H      1.984290    1.531534   -0.258611
H      1.213140    0.389515   -1.403873
H      0.665467    0.780482    1.593976
H     -0.404926    1.388210    0.321570
H     -1.343813   -0.195410   -1.225295
H     -0.558123   -1.793772   -1.211935
H     -2.884427   -2.034116   -1.216733
H     -2.319853   -2.629281    0.352582
H     -2.302071    1.064383    0.973493
H     -3.146505    0.206350    2.345461
H     -1.550646   -1.736396    2.030289
H     -0.783956   -0.158497    2.638127
H     -4.898960   -1.938227   -1.264074
H     -7.257849   -1.380683   -1.731389
H     -8.230215    0.554424   -0.520441
H     -6.939505    1.844000    1.044662
