51

H      0.000000    0.000000    0.000000
Cl     0.000000    0.000000    0.000000
C     -4.805976   -2.217751   -0.727722
C     -5.079164   -0.799145   -0.329307
N     -3.985338   -0.195756    0.400979
C     -4.299105    1.168104    0.773845
C     -5.423420    1.074961    1.817039
C     -2.726706   -0.346966   -0.283584
C     -1.580085    0.191670    0.498365
O     -0.377620   -0.001792   -0.251601
C      0.872922    0.343131    0.186133
O      0.999754    0.862644    1.320012
C      2.081427    0.098715   -0.679579
O      1.653100   -0.191566   -1.992183
C      2.796622   -1.091546   -0.129028
C      3.755912   -1.737971   -0.919979
C      4.413146   -2.840199   -0.442141
C      4.181304   -3.370145    0.809289
C      3.239849   -2.739074    1.591132
C      2.564487   -1.615640    1.114714
C      2.895740    1.305961   -0.696967
C      2.316813    2.554237   -0.887492
C      3.039576    3.719249   -0.910794
C      4.404509    3.686109   -0.740872
C      4.995138    2.465338   -0.551169
C      4.250472    1.276522   -0.528184
H     -4.486575   -2.824113    0.172706
H     -4.026627   -2.350407   -1.480573
H     -5.728843   -2.710912   -1.091322
H     -5.996139   -0.790738    0.290759
H     -5.289483   -0.215683   -1.244934
H     -4.670903    1.736013   -0.095574
H     -3.484527    1.723825    1.235900
H     -5.412355    1.955653    2.487377
H     -5.303659    0.152434    2.431585
H     -6.378969    1.018449    1.264819
H     -2.786201    0.170489   -1.248748
H     -2.560782   -1.441787   -0.390600
H     -1.410492   -0.370515    1.461513
H     -1.625264    1.247442    0.777033
H      0.661860   -0.216036   -2.006657
H      3.937536   -1.317391   -1.907164
H      5.156707   -3.342131   -1.048488
H      4.701659   -4.247017    1.187444
H      3.032213   -3.135113    2.594490
H      1.830180   -1.168573    1.783763
H      1.226492    2.553091   -1.018581
H      2.569089    4.673065   -1.060762
H      5.017436    4.586719   -0.753413
H      6.061742    2.374561   -0.412622
H      4.782546    0.339591   -0.368856
