23

C     -3.896934   -1.096640   -0.267765
C     -3.335360   -0.074298    0.663507
O     -1.925563   -0.035128    0.682959
C     -1.140753    0.231186   -0.405955
O     -1.676626    0.460834   -1.513226
C      0.302995    0.255278   -0.313967
C      0.990768    0.015754    0.858647
C      2.366021    0.046727    0.910221
C      3.092308    0.321757   -0.225786
N      4.517355    0.352318   -0.165392
C      2.445462    0.562733   -1.399240
C      1.075041    0.525542   -1.422213
H     -4.143107   -2.057050    0.251227
H     -3.288748   -1.262185   -1.177416
H     -4.884068   -0.712363   -0.634264
H     -3.648279   -0.371353    1.704338
H     -3.789101    0.923499    0.494510
H      0.385087   -0.199252    1.741501
H      2.869771   -0.150323    1.866262
H      5.102645   -0.507100   -0.259880
H      4.963405    1.275416   -0.021519
H      3.045753    0.776165   -2.275819
H      0.571928    0.718483   -2.359704
