55

C      4.862382    0.588473   -0.725405
N      3.504602    0.319551   -0.392488
C      3.126359   -1.062640   -0.532445
C      3.803859   -1.680865    0.689836
C      3.450403   -0.684164    1.752394
C      3.168806    0.589907    0.989265
C      1.663267    0.866615    0.999347
C      0.933350    0.047843   -0.022634
C      1.648268   -1.214078   -0.408934
O     -0.335417   -0.196948    0.446186
C     -1.339011    0.369209   -0.303294
C     -2.156733   -0.717776   -0.940055
C     -2.534989   -0.656801   -2.260322
C     -3.282732   -1.631755   -2.878009
C     -3.675205   -2.723849   -2.146770
C     -3.296652   -2.785581   -0.824174
C     -2.547517   -1.810467   -0.202343
C     -2.190327    1.316261    0.459761
C     -2.648843    0.998841    1.719035
C     -3.451054    1.888617    2.440431
C     -3.794386    3.105436    1.891963
C     -3.339584    3.433379    0.629474
C     -2.551007    2.541157   -0.061659
O     -1.084135   -0.975992   -0.223897
S     -0.017942    0.314834   -0.000393
O      1.487044   -0.207936   -0.545202
O     -0.412409    1.496441   -0.852813
O      0.013503    0.717615    1.438438
H      5.095092    1.628599   -0.373186
H      5.601052   -0.093693   -0.269625
H      4.950487    0.632013   -1.833246
H      3.556999   -1.536783   -1.423935
H      3.274001   -2.645206    0.888653
H      4.881614   -1.820144    0.544797
H      2.505328   -1.026336    2.261596
H      4.228563   -0.560101    2.527207
H      3.744633    1.446295    1.351049
H      1.572529    1.968038    0.765710
H      1.253253    0.760835    2.025756
H      0.840865    0.675797   -0.940629
H      1.436045   -2.044668    0.313057
H      1.257736   -1.565240   -1.386754
H     -0.864898    0.914211   -1.147282
H     -2.207378    0.227282   -2.820626
H     -3.548625   -1.522001   -3.927726
H     -4.260443   -3.485982   -2.631934
H     -3.615710   -3.666002   -0.243150
H     -2.270830   -1.901346    0.847004
H     -2.419692    0.071337    2.203704
H     -3.811012    1.623849    3.444988
H     -4.413646    3.792934    2.448196
H     -3.585166    4.368030    0.171249
H     -2.218637    2.857918   -1.063372
H     -1.973516   -0.640290    0.049017
H      1.987454   -0.704672    0.134850
