33

C      3.215916    1.691725   -1.091744
N      2.499385    0.674909   -0.340479
C      2.768646    0.512440    1.031524
O      3.623822    1.224328    1.658433
N      2.089399   -0.472407    1.807810
C      1.130112   -1.284804    1.147004
O      0.725052   -2.315413    1.734610
C      0.586943   -0.973542   -0.199401
C      0.507656   -2.318126   -0.936599
C      1.539151   -0.142979   -0.988467
O      1.449992   -0.202410   -2.260255
C     -0.746286   -0.340019   -0.134985
C     -0.906024    0.862605   -0.647635
C     -2.206575    1.544851   -0.614323
C     -3.098754    1.152349    0.514810
C     -2.918306   -0.202749    1.075535
C     -1.858147   -1.045899    0.487439
H      3.246363    2.666888   -0.549896
H      2.745909    1.886492   -2.067595
H      4.264112    1.387977   -1.298185
H      2.288643   -0.596327    2.834025
H      0.012469   -3.033829   -0.252799
H      1.533712   -2.669298   -1.107785
H     -0.091898   -2.226686   -1.856996
H     -0.074185    1.412434   -1.126209
H     -2.017022    2.635295   -0.527612
H     -2.677369    1.405881   -1.613833
H     -4.158039    1.229421    0.125298
H     -3.072602    1.936006    1.328429
H     -3.877059   -0.801804    1.055212
H     -2.702790   -0.111956    2.182358
H     -1.499884   -1.782017    1.265133
H     -2.322343   -1.703337   -0.305508
