92

C     -7.446168    1.243368   -0.713464
C     -6.178885    1.753089   -0.054486
C     -6.044436    3.221256   -0.425278
C     -6.388341    1.611849    1.436544
N     -5.076387    0.971185   -0.545103
C     -3.724143    1.211109   -0.114574
O     -3.572007    2.145113    0.713316
C     -2.597859    0.394490   -0.629818
C     -2.774599   -1.061622   -0.378667
N     -2.616258   -1.449202    0.990731
C     -1.618507   -0.700115    1.696415
C     -0.641354    0.035058    0.758303
N     -1.366461    0.878146   -0.072306
C     -0.796075    1.964213   -0.753265
C      0.130885    1.775188   -1.862515
O      0.425232    3.139778   -2.307900
C      1.445842    1.144821   -1.685137
C      2.492788    1.714183   -0.835669
C      2.326560    1.897493    0.614399
C      3.633265    2.511813    1.119448
C      4.657693    1.695033    1.531315
C      5.829093    2.265021    1.982188
C      6.016011    3.633804    2.037301
C      4.972557    4.433038    1.618227
C      3.794400    3.859977    1.164604
C      3.783728    1.010866   -1.168190
O      4.778915    1.702642   -1.461813
N      3.930757   -0.402584   -1.164985
C      5.182696   -1.010528   -1.489608
C      5.173425   -1.781275   -2.799990
O      4.242683   -2.812151   -2.749538
C      6.553069   -2.455274   -2.695265
C      6.481974   -2.930326   -1.272254
C      7.067538   -4.008441   -0.639854
C      6.861360   -4.277302    0.699640
C      6.050218   -3.441573    1.406733
C      5.455871   -2.348540    0.767130
C      5.643816   -2.059723   -0.556839
C     -3.865214   -1.532510    1.710545
C     -4.715015   -2.552171    1.048898
C     -6.088751   -2.570203    1.195680
C     -6.808319   -3.551860    0.555094
C     -6.235254   -4.527188   -0.231435
N     -4.900654   -4.485501   -0.356345
C     -4.161936   -3.540694    0.254987
H     -7.360343    0.139590   -0.816807
H     -7.468937    1.635361   -1.752210
H     -8.363819    1.543762   -0.148256
H     -7.032437    3.633903   -0.720004
H     -5.370299    3.352537   -1.300049
H     -5.693656    3.828346    0.439711
H     -6.980177    2.511637    1.751682
H     -7.027194    0.741087    1.668558
H     -5.456325    1.647283    2.018531
H     -5.207058    0.197124   -1.233535
H     -2.623833    0.532054   -1.751756
H     -3.815999   -1.316450   -0.685962
H     -2.109300   -1.701234   -0.993010
H     -2.141453    0.063987    2.307611
H     -1.074193   -1.359316    2.381363
H     -0.048186    0.658606    1.479908
H      0.006094   -0.725925    0.264063
H     -1.702609    2.567177   -1.164020
H     -0.392500    2.692389   -0.017451
H     -0.385162    1.392503   -2.808084
H     -0.463233    3.604970   -2.375161
H      1.350451    0.019933   -1.514258
H      1.917415    1.121428   -2.748634
H      2.678380    2.779374   -1.265798
H      1.562978    2.564610    0.984290
H      2.271745    0.943164    1.192691
H      4.519317    0.626456    1.491328
H      6.642138    1.626414    2.308376
H      6.951568    4.060059    2.397799
H      5.129529    5.506041    1.665764
H      2.980121    4.500507    0.837048
H      3.115816   -1.001589   -0.922263
H      5.989260   -0.233039   -1.614708
H      5.101236   -1.140815   -3.681674
H      3.959722   -2.910620   -1.818362
H      7.319850   -1.681137   -2.827131
H      6.657704   -3.284497   -3.410234
H      7.719437   -4.689205   -1.182399
H      7.313997   -5.120267    1.214448
H      5.883280   -3.643169    2.449876
H      4.819551   -1.722431    1.385325
H     -3.729427   -1.831334    2.754093
H     -4.409524   -0.573209    1.687695
H     -6.536514   -1.806618    1.812099
H     -7.893737   -3.569469    0.668609
H     -6.835276   -5.288459   -0.722966
H     -3.082149   -3.605269    0.082146
