18

C      1.865934    0.435897    0.355169
C      0.568869    0.549455   -0.407390
C      0.199761   -0.839914   -0.874630
C     -0.863802   -1.230250    0.161270
C     -1.679790    0.072165    0.116232
C     -0.556130    1.057815    0.437736
H      2.699057    0.277397   -0.350090
H      1.861567   -0.460742    1.025941
H      2.073976    1.345143    0.938320
H      0.695360    1.219411   -1.270792
H     -0.338584   -0.752047   -1.857195
H      1.035541   -1.536293   -0.895563
H     -0.385982   -1.338913    1.158242
H     -1.445067   -2.094660   -0.148573
H     -1.986456    0.193577   -0.945388
H     -2.485813    0.087922    0.835214
H     -0.365729    0.945011    1.529431
H     -0.892712    2.069025    0.192064
