37

N     -0.168556    0.294176    0.708776
C     -0.340118   -0.995845    1.312200
C     -1.052684   -1.241188    2.459436
S     -1.848866    0.084934    3.330839
C     -1.494029    1.562268    2.391603
C     -0.732728    1.488483    1.249741
C     -0.535732    2.701248    0.600099
C     -1.057741    3.884192    1.059651
C     -1.807751    3.887643    2.205616
C     -2.039046    2.718686    2.893703
C     -1.185223   -2.493057    3.000958
C     -0.580138   -3.568404    2.376718
C      0.146583   -3.386062    1.226294
C      0.250428   -2.091997    0.716801
Cl     0.932547   -4.710338    0.396105
C      0.592129    0.356883   -0.520620
C     -0.150692   -0.047270   -1.742539
C      0.754834    0.037634   -2.969555
N      1.888455   -0.848984   -2.786362
C      2.771944   -0.804669   -3.917926
H      0.029337    2.761251   -0.305395
H     -0.874998    4.812745    0.514312
H     -2.222146    4.815218    2.574005
H     -2.632233    2.728023    3.797743
H     -1.763277   -2.619678    3.911261
H     -0.672902   -4.552115    2.784674
H      0.851604   -2.006012   -0.199036
H      1.521644   -0.294225   -0.471316
H      1.034289    1.356440   -0.692977
H     -1.042497    0.605891   -1.929826
H     -0.555756   -1.063946   -1.705535
H      1.144126    1.042228   -3.138939
H      0.189363   -0.264596   -3.870191
H      1.623245   -1.806990   -2.524746
H      3.430238    0.086327   -3.858659
H      3.407333   -1.701853   -4.012758
H      2.189014   -0.727041   -4.864159
