34

N     -0.153279    0.159710    0.629045
C     -0.986333   -0.956753    0.348073
C     -2.220377   -0.861981   -0.257149
S     -2.899242    0.683030   -0.741444
C     -1.669667    1.917304   -0.287756
C     -0.509842    1.519090    0.311078
C      0.383908    2.552783    0.610307
C      0.125139    3.879974    0.328375
C     -1.058161    4.226630   -0.274538
C     -1.956586    3.239503   -0.582591
C     -2.971517   -1.969775   -0.493398
C     -2.566980   -3.248787   -0.153003
C     -1.342721   -3.357745    0.449874
C     -0.554327   -2.242642    0.703221
Cl    -0.817716   -4.968001    0.886392
C      1.137253   -0.060517    1.238162
C      2.271597   -0.174660    0.259073
C      2.147431   -1.290273   -0.740906
N      3.309677   -1.282536   -1.652921
H      1.344177    2.351511    1.072683
H      0.874274    4.638409    0.592792
H     -1.283178    5.250464   -0.503886
H     -2.913879    3.465630   -1.064125
H     -3.960591   -1.910584   -0.976999
H     -3.193928   -4.099439   -0.358767
H      0.382095   -2.453288    1.188438
H      1.339360    0.788647    1.926557
H      1.178196   -0.994404    1.847488
H      2.424759    0.758980   -0.325997
H      3.242034   -0.396375    0.802206
H      1.227910   -1.201485   -1.314670
H      2.187049   -2.298400   -0.270886
H      3.299040   -0.303000   -2.068853
H      4.184425   -1.361022   -1.125878
