44

C     -5.888954    0.293860   -0.228736
N     -4.647577    0.258923    0.519303
C     -4.060998   -1.051485    0.361016
C     -3.083667   -0.930879   -0.826704
N     -1.951434   -0.228537   -0.305167
C     -2.324599    1.067098    0.291379
C     -3.807786    1.322719    0.096936
C     -0.603089   -0.640706   -0.305085
C     -0.176328   -1.843160   -0.821687
F     -1.025478   -2.728423   -1.364407
C      1.153706   -2.216992   -0.811943
C      2.128027   -1.412017   -0.286523
C      3.460988   -1.824368   -0.297814
O      3.733578   -2.939727   -0.794919
C      4.422032   -1.000095    0.232282
C      4.005706    0.191755    0.746311
N      2.692806    0.604475    0.760800
C      2.424782    1.879285    1.351800
C      2.462810    2.994481    0.334198
F      2.175818    4.169300    1.044380
C      1.739250   -0.188029    0.246222
C      0.409626    0.164015    0.225474
F      0.066699    1.350692    0.732130
C      5.813582   -1.424150    0.223212
O      6.167623   -2.646086   -0.314143
O      6.696765   -0.685705    0.701371
H     -5.995680    1.255100   -0.788114
H     -6.771883    0.144941    0.459673
H     -5.968383   -0.518432   -0.973642
H     -4.857772   -1.767157    0.117135
H     -3.526445   -1.295818    1.286558
H     -3.579525   -0.198369   -1.542772
H     -2.945422   -1.863217   -1.330559
H     -1.821286    1.842892   -0.308142
H     -2.029360    1.149343    1.339371
H     -4.035335    2.213629    0.754283
H     -3.984766    1.688020   -0.931982
H      1.472455   -3.181384   -1.229880
H      4.768380    0.843377    1.165891
H      3.321832    2.159206    2.041962
H      1.518758    1.985126    1.955621
H      3.533323    3.112571    0.026813
H      1.796403    2.869939   -0.523872
H      7.120821   -2.976011   -0.391038
