64

C      7.492767    0.922105   -0.991115
C      6.781194    0.212065    0.180410
C      7.339209   -1.183010    0.189590
C      7.177198    0.917799    1.456469
C      5.316077    0.220915   -0.032339
C      4.666200    1.410182   -0.346639
C      3.314035    1.457600   -0.583134
C      2.513760    0.312770   -0.520764
C      1.076175    0.426279   -0.879680
N      0.225353   -0.610245   -0.614550
C     -0.328915   -0.871296    0.638623
C     -1.791802   -0.341369    0.713482
N     -2.476561   -0.646707   -0.433607
C     -1.886327   -1.448923   -1.463676
C     -0.434569   -1.157878   -1.738663
C     -3.829785   -0.336502   -0.667441
C     -4.733053   -1.216784    0.111851
C     -6.075863   -0.840482    0.206075
C     -6.975837   -1.606603    0.902128
C     -6.596844   -2.771791    1.532970
C     -5.289911   -3.163779    1.458758
C     -4.383684   -2.379158    0.750052
C     -4.212819    1.089979   -0.498313
C     -4.101123    1.693127    0.721272
C     -4.411221    3.031337    0.901997
C     -4.842436    3.784740   -0.154521
Cl    -5.222705    5.483387    0.099908
C     -4.967783    3.202788   -1.394926
C     -4.649286    1.853559   -1.551759
C      3.146510   -0.864598   -0.208514
C      4.527484   -0.907018    0.031007
H      6.969036    0.556857   -1.907540
H      8.538339    0.636803   -0.926400
H      7.306766    2.016046   -0.945021
H      7.278472   -1.653548    1.191703
H      8.408747   -1.122155   -0.058634
H      6.855668   -1.752923   -0.621998
H      7.406701    1.995644    1.206064
H      6.337141    0.870835    2.178695
H      8.098918    0.458413    1.901446
H      5.273585    2.292788   -0.402008
H      2.800835    2.386603   -0.823521
H      0.739869    1.422162   -0.423676
H      1.019939    0.666718   -1.989608
H      0.225693   -0.312152    1.417808
H     -0.361060   -1.918663    0.932566
H     -2.218418   -0.790139    1.618655
H     -1.687538    0.764175    0.933315
H     -2.446490   -1.258273   -2.412655
H     -2.014065   -2.505319   -1.228833
H     -0.311271   -0.560596   -2.666767
H      0.061527   -2.150944   -1.944307
H     -4.042126   -0.618555   -1.754676
H     -6.434855    0.065225   -0.270975
H     -8.015598   -1.315613    0.972737
H     -7.281306   -3.390112    2.078867
H     -4.914938   -4.052898    1.926292
H     -3.358239   -2.706244    0.709580
H     -3.791922    1.174905    1.636785
H     -4.311673    3.504842    1.885421
H     -5.309036    3.811206   -2.215938
H     -4.763307    1.439520   -2.531951
H      2.555860   -1.783506   -0.145669
H      5.019306   -1.843592    0.278088
