31

C     -3.996783    0.041915   -0.187159
N     -2.865194   -0.420140    0.521994
C     -3.059127   -1.195894    1.678625
C     -1.611861   -0.409669   -0.109763
C     -1.004378    0.942520   -0.385820
C      0.314531    0.832960   -1.053028
C      0.712539    1.047242   -2.345524
N      2.025041    0.813187   -2.454421
C      2.528290    0.440898   -1.247214
C      3.799237    0.099779   -0.858908
C      4.054853   -0.248028    0.443391
C      3.003055   -0.242076    1.334910
O      3.236421   -0.588800    2.652425
C      1.729041    0.101704    0.937471
C      1.462173    0.452182   -0.369227
H     -4.483762    0.925092    0.322045
H     -4.829720   -0.722677   -0.191011
H     -3.812798    0.240439   -1.264908
H     -2.212051   -1.852584    1.955322
H     -3.253440   -0.513000    2.558376
H     -3.959056   -1.849636    1.616670
H     -0.901463   -1.022721    0.486874
H     -1.715417   -0.980432   -1.078945
H     -1.709989    1.600338   -0.933497
H     -0.812555    1.414245    0.606211
H      0.048246    1.353856   -3.123672
H      2.583402    0.900403   -3.327414
H      4.608302    0.099887   -1.561365
H      5.072500   -0.526585    0.772894
H      4.149105   -0.844244    2.977774
H      0.900856    0.109839    1.626896
