31

C     -3.470200   -1.086951    0.151324
C     -2.402227   -0.158158   -0.431652
C     -1.098691   -0.349539    0.270894
C     -0.598833   -1.777596    0.151026
C     -0.101729    0.661149   -0.138424
C     -0.589732    2.049616    0.206100
C      0.451636    3.093280   -0.205361
C      1.262202    0.470153    0.443261
O      1.695546    1.260651    1.319217
N      2.088275   -0.601244    0.021377
C      3.401725   -0.791313    0.594933
N      4.238440   -1.856708    0.183999
O      3.740525    0.048525    1.473606
H     -4.445053   -0.697328   -0.185483
H     -3.298045   -2.078735   -0.310739
H     -3.429611   -1.113273    1.256852
H     -2.787259    0.862184   -0.375490
H     -2.349668   -0.428560   -1.514897
H     -1.267518   -0.207475    1.379107
H     -0.407835   -2.109412   -0.865926
H     -1.468250   -2.398905    0.530381
H      0.180486   -1.926616    0.894686
H      0.010120    0.596099   -1.274219
H     -1.569305    2.302229   -0.209507
H     -0.705787    2.063635    1.310239
H      1.334516    2.549060   -0.594652
H     -0.002290    3.730428   -1.006193
H      0.688321    3.688374    0.696752
H      1.811645   -1.297860   -0.705063
H      4.955373   -1.702852   -0.547973
H      4.133222   -2.792857    0.616772
