51

C      0.873957    0.475972   -0.829888
N      0.264721    0.670837    0.465573
C      0.694948   -0.174267    1.471888
C      2.236125   -0.074692    1.626386
N      2.763117   -0.498651    0.357728
C      1.858606   -0.696563   -0.766473
C      4.135464   -0.692701    0.170743
C      5.029375    0.377373    0.201997
C      6.373230    0.218363    0.023500
C      6.872075   -1.042094   -0.191937
C      5.973429   -2.100403   -0.222032
N      4.635072   -1.925239   -0.044812
C      7.334689    1.355347    0.047727
F      7.196206    2.009461   -1.168274
F      8.610698    0.874676    0.219252
F      6.939280    2.227294    1.018334
C     -0.932025    1.369449    0.485516
C     -2.151451    0.701843   -0.108135
C     -2.498501   -0.522314    0.699415
C     -3.643406   -1.315392    0.178676
N     -4.873680   -0.613372    0.009685
C     -5.245742    0.020100   -1.225630
C     -6.695405    0.457617   -1.118336
C     -6.661314    0.840891    0.382733
C     -5.961472   -0.395016    0.940571
O     -4.534347    0.205246   -2.240684
H      0.186139    0.303602   -1.654664
H      1.469703    1.392352   -1.048343
H      0.284533    0.152917    2.450324
H      0.555764   -1.287452    1.301885
H      2.547557   -0.764909    2.462191
H      2.473909    0.964365    1.812430
H      2.375465   -0.743950   -1.731386
H      1.342217   -1.644605   -0.594781
H      4.615558    1.359309    0.376088
H      7.930222   -1.201881   -0.330743
H      6.375598   -3.077408   -0.399117
H     -1.134520    1.685489    1.541570
H     -0.807814    2.334295   -0.080579
H     -3.031086    1.392579    0.037729
H     -2.064926    0.527179   -1.189463
H     -2.729254   -0.123664    1.739229
H     -1.594057   -1.118423    0.821979
H     -3.830806   -2.142329    0.943375
H     -3.307737   -1.857430   -0.729829
H     -7.374801   -0.415626   -1.182040
H     -6.932957    1.284577   -1.765222
H     -7.658218    0.980836    0.779282
H     -5.984793    1.722600    0.496309
H     -6.687581   -1.215292    0.869686
H     -5.611763   -0.260897    1.975604
