21

C     -2.675491   -1.167027   -0.149534
N     -1.940440    0.072426   -0.228386
C     -2.511274    1.269461   -0.445647
N     -1.495833    2.153646   -0.447828
C     -0.326953    1.514521   -0.236634
N      0.967134    1.909544   -0.145009
C      1.971281    1.059240    0.075281
O      3.178897    1.414047    0.162569
N      1.716940   -0.257490    0.217078
C      2.814265   -1.205638    0.460252
C      0.441784   -0.678992    0.130959
O      0.182604   -1.891682    0.258814
C     -0.615333    0.181551   -0.096489
H     -2.052836   -1.988849   -0.557790
H     -3.609718   -1.081574   -0.739234
H     -2.932197   -1.356258    0.931231
H     -3.579148    1.466571   -0.588689
H      1.182630    2.907207   -0.249922
H      3.683793   -0.638336    0.838382
H      3.067376   -1.760431   -0.468593
H      2.532521   -1.921935    1.279190
