12

C     -1.305975   -0.467546    0.222456
C     -0.140435   -0.183117   -0.651914
C      0.853144    0.780201   -0.040759
O      1.359556    0.268234    1.151205
H     -1.311375   -1.555040    0.511556
H     -1.318894    0.106418    1.166632
H     -2.293333   -0.296414   -0.257066
H     -0.485980    0.199305   -1.632848
H      0.440361   -1.130508   -0.847294
H      1.718742    0.904395   -0.722283
H      0.425542    1.767762    0.171786
H      2.058646   -0.393690    0.928531
