10

C     -1.299275   -0.022419   -0.178538
C      0.012356   -0.056158    0.504429
C      1.315401    0.036505   -0.187517
O      0.008537   -0.168133    1.719530
H     -1.878208    0.863627    0.210443
H     -1.223250    0.060869   -1.270697
H     -1.919438   -0.906707    0.097869
H      1.995604   -0.700508    0.319737
H      1.742262    1.032957    0.052261
H      1.246010   -0.140032   -1.267517
