55

C     -4.027791   -1.360820    0.046419
C     -4.562748   -2.221050   -0.878431
C     -5.794953   -2.754681   -0.686714
C     -6.505495   -2.422932    0.449410
C     -5.971039   -1.548844    1.397516
C     -4.735001   -1.034628    1.171678
Cl    -6.925050   -1.168084    2.814655
Cl    -8.095049   -3.122464    0.676461
C     -2.682266   -0.778952   -0.169121
C     -1.603445   -1.653670    0.360181
N     -0.271164   -1.219296    0.220358
C      0.022809    0.037224   -0.388867
C      1.330493    0.051388   -1.132771
N      2.228155   -1.014135   -0.830855
C      1.683755   -2.316615   -0.508511
C      0.782067   -2.110778    0.704121
C      3.661488   -0.822572   -0.848881
O      4.077570    0.309320   -1.134513
O      4.557148   -1.814425   -0.571442
C      5.975507   -1.597357   -0.601696
C      6.374785   -0.542834    0.381605
C      0.146702    1.137918    0.675668
N      0.441113    2.356101   -0.003946
C     -0.615099    2.871230   -0.814714
C     -0.530234    4.386543   -0.766433
C      0.825011    4.612829   -0.115016
C      0.868095    3.427859    0.847487
O     -1.889109   -2.766704    0.922973
H     -3.957825   -2.454614   -1.766872
H     -6.190868   -3.435926   -1.440122
H     -4.322067   -0.349270    1.921020
H     -2.478867   -0.711012   -1.280005
H     -2.594461    0.244727    0.214454
H     -0.765440    0.381083   -1.084737
H      1.903663    1.011964   -0.972105
H      1.146427    0.030267   -2.246705
H      1.075898   -2.617282   -1.391208
H      2.507890   -3.020421   -0.278498
H      1.360514   -1.679023    1.518428
H      0.403890   -3.087146    0.984489
H      6.427340   -2.595091   -0.373317
H      6.297474   -1.359775   -1.645229
H      7.040284   -0.981161    1.140805
H      6.914903    0.248607   -0.181533
H      5.493553   -0.136047    0.892062
H     -0.710887    1.157573    1.344871
H      1.029496    0.882275    1.332434
H     -1.616081    2.494879   -0.550363
H     -0.391519    2.534001   -1.867187
H     -1.350022    4.760228   -0.132785
H     -0.567996    4.782054   -1.791903
H      0.882496    5.568457    0.408097
H      1.591553    4.432579   -0.869528
H      1.923406    3.305517    1.177008
H      0.180987    3.672988    1.667190
