58

C     -4.398974    1.292291   -0.264293
C     -3.507790    0.821408   -1.350695
C     -2.494553   -0.169231   -0.872672
N     -1.115920    0.082722   -0.823556
C     -0.092978   -0.838896   -0.408329
C      1.209345   -0.468714   -1.081213
N      1.574803    0.868230   -0.681509
C      0.518814    1.799327   -0.291800
C     -0.668887    1.415887   -1.211146
C      2.912630    1.318747   -0.668218
O      3.866633    0.540963   -1.021344
O      3.291578    2.592433   -0.287877
C      4.611250    3.067325   -0.271506
C      5.529221    2.293120    0.641607
C      6.920123    2.870073    0.587027
C     -0.426443   -2.285660   -0.600760
N      0.638162   -3.193235   -0.207685
C      0.287533   -4.545714   -0.559762
C     -0.133624   -5.254368    0.685989
C      0.047180   -4.262999    1.781038
C      0.933315   -3.200065    1.188215
O     -2.946784   -1.270304   -0.505532
C     -4.159215    2.541966    0.319410
C     -4.940328    3.020374    1.347710
C     -5.974348    2.225810    1.790451
C     -6.216970    1.002677    1.226317
C     -5.433227    0.515562    0.188363
Cl    -6.975066    2.793948    3.088256
Cl    -4.601386    4.604905    2.054635
H     -3.058177    1.605810   -1.954278
H     -4.177158    0.252564   -2.071068
H      0.085178   -0.640193    0.687630
H      1.056518   -0.446745   -2.183067
H      2.012590   -1.201018   -0.867693
H      0.756232    2.845143   -0.464924
H      0.242886    1.611318    0.755107
H     -1.426806    2.185053   -1.025632
H     -0.248010    1.437327   -2.227004
H      5.061362    3.103961   -1.294324
H      4.573039    4.125717    0.073783
H      5.167346    2.409468    1.697666
H      5.532858    1.205694    0.460903
H      7.354205    2.836941    1.598550
H      7.602018    2.301846   -0.080227
H      6.860114    3.886455    0.175560
H     -0.795304   -2.497274   -1.606362
H     -1.253683   -2.508719    0.142818
H      1.160723   -5.054456   -1.058816
H     -0.543192   -4.583600   -1.298712
H      0.494609   -6.150533    0.905453
H     -1.199441   -5.593612    0.632213
H      0.572639   -4.721425    2.677112
H     -0.894785   -3.861586    2.213474
H      0.796645   -2.217141    1.696296
H      1.984799   -3.563690    1.308605
H     -3.337931    3.148066   -0.053207
H     -7.012229    0.344060    1.538871
H     -5.621140   -0.438015   -0.256265
