52

C     -3.631133   -0.736372   -0.858403
C     -4.169543   -0.179268    0.302292
C     -5.096407   -0.843967    1.084480
C     -5.523500   -2.103758    0.731456
C     -4.996532   -2.663055   -0.415588
C     -4.059576   -1.992921   -1.207310
Cl    -5.537547   -4.255790   -0.870301
Cl    -6.690401   -2.970320    1.698512
C     -2.632123    0.032259   -1.659479
C     -1.251311   -0.247079   -1.219238
O     -0.801057   -1.394457   -1.515573
N     -0.483269    0.685287   -0.522402
C      0.885629    0.448127   -0.127546
C      1.797065    1.591776   -0.618473
N      1.133928    2.804268   -0.215211
C      1.715213    3.701055    0.682241
O      2.863554    3.543323    1.192864
C      0.995103    4.946842    1.114954
C     -0.170048    3.047604   -0.773634
C     -1.060902    1.969982   -0.132366
C      1.504568   -0.810244   -0.627305
N      2.860275   -0.868362   -0.167948
C      3.005771   -1.083552    1.226538
C      3.061212   -2.598582    1.364457
O      4.133432   -2.920310    2.186160
C      3.349386   -3.091680   -0.021259
C      3.698592   -1.833086   -0.786427
H     -3.827141    0.806063    0.557235
H     -5.489494   -0.371046    1.978797
H     -3.674478   -2.470223   -2.091206
H     -2.661447   -0.384852   -2.739015
H     -2.912190    1.085700   -1.751699
H      0.860609    0.496879    1.001384
H      1.848863    1.531404   -1.717211
H      2.800623    1.461422   -0.181486
H     -0.100188    4.786494    1.174785
H      1.296172    5.208317    2.166526
H      1.226240    5.729670    0.393087
H     -0.188713    2.826507   -1.866659
H     -0.565140    4.050197   -0.644895
H     -0.987229    2.105725    0.976814
H     -2.079260    2.080731   -0.409426
H      0.935828   -1.692292   -0.200402
H      1.437127   -0.869239   -1.710170
H      4.042297   -0.702714    1.497648
H      2.249115   -0.643547    1.883266
H      2.114036   -2.993557    1.781761
H      3.806926   -3.343998    3.005805
H      2.455807   -3.523403   -0.538053
H      4.158238   -3.848382   -0.079935
H      3.602403   -1.923903   -1.865445
H      4.750616   -1.579672   -0.466998
