52

C      3.961508   -0.309098    0.562635
C      3.033962    0.638622   -0.044846
C      1.632935    0.171401   -0.056669
N      0.564847    0.917384   -0.612180
C     -0.795395    0.503458   -0.644105
C     -1.647969    1.611518   -0.008609
N     -1.299335    2.845847   -0.672980
C     -0.312221    2.856281   -1.732923
C      0.922258    2.204046   -1.188628
C     -1.921327    4.065929   -0.297128
O     -1.614324    5.154268   -0.882972
C     -2.934575    4.073727    0.784523
C     -1.125611   -0.756209    0.077219
N     -2.547217   -1.038567   -0.049485
C     -2.945050   -1.397895   -1.372562
C     -3.441048   -2.825704   -1.312461
C     -3.383557   -3.221796    0.118549
C     -3.010214   -2.002360    0.884585
O     -2.422064   -4.216909    0.298665
O      1.417274   -0.953067    0.462832
C      4.245029   -0.305123    1.905938
C      5.140318   -1.231067    2.451764
C      5.760359   -2.172780    1.644664
C      5.459298   -2.156252    0.299343
C      4.578608   -1.248735   -0.249975
F      6.080141   -3.094349   -0.488852
F      5.395364   -1.196122    3.787329
H      3.088335    1.607943    0.494581
H      3.352056    0.852242   -1.085992
H     -1.161173    0.456092   -1.709525
H     -1.347907    1.723242    1.056893
H     -2.727078    1.375730   -0.078574
H     -0.138398    3.858550   -2.140467
H     -0.718187    2.239698   -2.584173
H      1.249105    2.824335   -0.307982
H      1.746675    2.119397   -1.915751
H     -2.429720    3.878488    1.757712
H     -3.690366    3.292343    0.637738
H     -3.387983    5.082590    0.886301
H     -0.842542   -0.682523    1.134530
H     -0.623569   -1.657292   -0.338940
H     -3.695345   -0.696446   -1.758523
H     -2.056326   -1.326841   -2.057711
H     -2.785505   -3.490861   -1.921952
H     -4.464742   -2.865955   -1.763444
H     -4.375785   -3.605837    0.439658
H     -2.217280   -2.233704    1.628943
H     -3.898912   -1.604865    1.426973
H     -2.248094   -4.331504    1.267637
H      3.751488    0.436426    2.515119
H      6.460534   -2.894845    2.079876
H      4.368721   -1.272851   -1.326600
