56

C      3.373672   -0.437005   -1.101077
C      2.162520   -0.447744   -1.959045
C      1.042455    0.036912   -1.142999
N     -0.130821   -0.662526   -0.783482
C     -1.138712    0.015108    0.017802
C     -1.970290   -0.875366    0.867468
N     -1.854261   -2.268208    0.613664
C     -0.596387   -2.789584    0.134367
C     -0.341283   -2.030023   -1.182705
C     -2.954075   -3.130473    0.820565
O     -4.044262   -2.648267    1.233088
C     -2.882759   -4.583397    0.573842
C     -2.056921    0.829346   -0.887588
N     -3.017250    1.473389   -0.019760
C     -2.423945    2.485492    0.811211
C     -3.649490    3.105364    1.462160
C     -4.623260    3.101761    0.306623
C     -4.062532    2.142943   -0.717727
O     -4.662274    4.410022   -0.173349
O      1.163702    1.241696   -0.714728
C      4.062677    0.733968   -0.922579
C      5.191085    0.722286   -0.118533
C      5.610286   -0.446000    0.488861
C      4.917255   -1.618766    0.308153
C      3.782473   -1.586915   -0.505881
O      5.876332    1.903056    0.056672
C      7.034717    1.985335    0.860241
H      2.005267   -1.431683   -2.407372
H      2.300986    0.273013   -2.808629
H     -0.556470    0.689674    0.691292
H     -3.062199   -0.593543    0.791822
H     -1.752013   -0.723447    1.963510
H     -0.558432   -3.866985    0.002564
H      0.207612   -2.409304    0.822072
H      0.509363   -2.498285   -1.665292
H     -1.274913   -2.062465   -1.778884
H     -3.747876   -5.087320    1.013499
H     -1.965257   -5.036342    1.024263
H     -2.851070   -4.740840   -0.526205
H     -2.610843    0.115706   -1.525531
H     -1.495430    1.519478   -1.535192
H     -1.733968    2.071311    1.571191
H     -1.867532    3.253302    0.230295
H     -3.444620    4.104058    1.872425
H     -3.961003    2.363846    2.253417
H     -5.621002    2.733160    0.619492
H     -3.735365    2.695753   -1.612865
H     -4.831554    1.362778   -1.000594
H     -4.477665    4.436690   -1.143496
H      3.780274    1.669843   -1.368857
H      6.490038   -0.475790    1.121140
H      5.229182   -2.541207    0.773155
H      3.260821   -2.520543   -0.627592
H      7.189790    3.066352    1.073198
H      7.939749    1.552125    0.365353
H      6.825476    1.418263    1.799160
