61

C     -6.329470    4.483685    0.740518
C     -6.303615    2.971513    0.771285
C     -4.991616    2.439236    0.322694
O     -4.114848    3.277125   -0.008995
C     -4.736230    1.010041    0.270826
C     -5.730310    0.135083    0.644676
C     -5.478286   -1.213363    0.592242
C     -4.241387   -1.641227    0.167838
S     -3.992039   -3.407081    0.141194
C     -2.350239   -3.671918   -0.446676
C     -1.939712   -4.966740   -0.573832
C     -0.688987   -5.309210   -1.026407
C      0.151304   -4.275895   -1.353627
C     -0.250073   -2.966384   -1.230253
C     -1.528324   -2.620777   -0.766915
N     -1.929266   -1.247160   -0.660285
C     -0.867319   -0.299959   -1.018750
C      0.199223   -0.216889    0.056642
C      1.250158    0.749285   -0.412769
N      2.329158    0.918955    0.527089
C      3.299256    1.861728    0.010169
C      4.358461    2.065960    1.069871
N      5.174838    0.857549    1.081315
C      6.318210    1.120109    0.237039
C      7.252325   -0.067429    0.164600
O      7.751582   -0.428575    1.391279
C      4.463674   -0.264065    0.508494
C      3.000171   -0.284670    0.882850
C     -3.210194   -0.822085   -0.218085
C     -3.502865    0.540229   -0.151270
H     -5.984733    4.858658    1.716488
H     -5.661306    4.839446   -0.077507
H     -7.378384    4.798929    0.594209
H     -6.560258    2.662067    1.799865
H     -7.056303    2.584643    0.027404
H     -6.690306    0.473105    0.973808
H     -6.254887   -1.947185    0.885754
H     -2.616616   -5.795949   -0.310508
H     -0.381720   -6.360249   -1.119876
H      1.146249   -4.473304   -1.715124
H      0.461334   -2.219821   -1.518006
H     -0.419524   -0.604401   -2.014593
H     -1.249388    0.728509   -1.097506
H     -0.358109    0.292583    0.921224
H      0.538538   -1.144482    0.478925
H      0.777858    1.740736   -0.567427
H      1.682628    0.439968   -1.384438
H      3.796592    1.476581   -0.895637
H      2.823373    2.820013   -0.288212
H      3.909991    2.263752    2.065848
H      4.938085    2.964597    0.791034
H      5.996663    1.406582   -0.780418
H      6.896496    1.976300    0.639549
H      8.096617    0.166051   -0.514167
H      6.679963   -0.886908   -0.321981
H      7.258483    0.049464    2.103207
H      4.613219   -0.359938   -0.583517
H      4.917015   -1.177899    0.956238
H      2.926405   -0.392000    1.997752
H      2.574407   -1.192247    0.376299
H     -2.785963    1.285332   -0.418982
