35

C      4.564540    0.678080    1.819031
N      4.074292   -0.134350    0.735290
C      2.809947   -0.348751    0.568652
C      1.947444    0.301603    1.567780
N      0.674193    0.699984    1.048362
O      0.192978    1.850286    1.571919
C     -0.219527    0.140545    0.081001
C      0.064649   -0.748139   -0.859797
C     -1.034436   -1.075827   -1.627801
C     -0.918046   -1.989872   -2.658836
Cl    -2.343582   -2.354011   -3.583589
C      0.310244   -2.560479   -2.898923
C      1.428103   -2.266241   -2.163535
C      1.307465   -1.339631   -1.119200
N      2.421628   -1.159537   -0.518157
C     -1.597878    0.583229    0.117067
C     -2.018749    1.680965   -0.608389
C     -3.333018    2.084332   -0.541061
C     -4.253266    1.402366    0.249889
C     -3.842658    0.307058    0.976430
C     -2.524620   -0.078714    0.894445
H      4.127124    0.378771    2.814628
H      5.680078    0.533702    1.852194
H      4.375277    1.761088    1.693397
H      2.453971    1.188258    2.001370
H      1.846325   -0.434141    2.417531
H     -0.017955    1.797480    2.518767
H     -1.970096   -0.596264   -1.392235
H      0.403295   -3.281623   -3.711981
H      2.406138   -2.682510   -2.310061
H     -1.290156    2.187527   -1.208867
H     -3.622154    2.941650   -1.119017
H     -5.285430    1.727275    0.296498
H     -4.566199   -0.236474    1.603970
H     -2.249922   -0.957635    1.493226
