21

C     -1.625509    0.655474   -0.831605
N     -0.496885    0.119034   -0.058916
C     -0.789763   -1.284567    0.173869
C     -0.506236    0.785697    1.211941
C      0.678566    0.322710   -0.834472
C      1.909964   -0.340868   -0.299769
O      2.243634    0.101344    0.979298
H     -1.340920    0.832983   -1.889377
H     -1.921970    1.661733   -0.434883
H     -2.478860   -0.048736   -0.849162
H     -0.106229   -1.713592    0.911190
H     -1.819946   -1.302503    0.638683
H     -0.879118   -1.867804   -0.754687
H      0.129820    0.310076    1.974626
H     -1.560278    0.699388    1.607330
H     -0.210189    1.848510    1.111600
H      0.871854    1.392908   -0.924605
H      0.499990   -0.070396   -1.853063
H      2.757073   -0.042763   -0.964338
H      1.856199   -1.449422   -0.350670
H      2.788803   -0.609206    1.437011
