34

C      3.954569   -0.709851   -0.207230
N      2.565665   -0.490739   -0.613234
C      2.174314   -1.023055   -1.865947
O      3.186846   -1.318368   -2.600421
C      0.873135   -1.307262   -2.498129
C     -0.230238   -0.482772   -2.053959
O     -1.121401   -0.071662   -2.879500
N     -0.514682   -0.008907   -0.728764
C     -1.850519   -0.019073   -0.306564
C     -2.817543    0.739116   -0.895550
C     -4.103168    0.649907   -0.410671
C     -4.432728   -0.192112    0.658938
C     -3.454801   -0.959339    1.254871
C     -2.178224   -0.847984    0.747071
C      0.382650    0.484521    0.275044
C     -0.208933    1.239261    1.269648
C      0.531172    1.768770    2.304915
Cl    -0.250955    2.705838    3.535887
C      1.876132    1.534469    2.334923
C      2.480418    0.783827    1.350468
C      1.757614    0.240018    0.297995
H      4.538398    0.239208   -0.291216
H      4.424072   -1.369646   -0.997540
H      4.061774   -1.243090    0.731465
H      1.007703   -1.218941   -3.605537
H      0.664302   -2.411309   -2.327501
H     -2.609127    1.415508   -1.747792
H     -4.871662    1.253934   -0.882507
H     -5.450786   -0.259952    1.041639
H     -3.657490   -1.625411    2.082710
H     -1.429603   -1.482203    1.250597
H     -1.283228    1.387617    1.181822
H      2.443911    1.970723    3.168111
H      3.542412    0.628958    1.425960
