39

C     -2.521529    2.799627    0.912383
N     -2.603802    1.660576    0.057731
C     -1.440257    1.155953   -0.646509
C     -1.126110   -0.257784   -0.361965
N     -1.965230   -1.307599   -0.320147
C     -1.219300   -2.385473   -0.027049
N      0.056015   -2.037162    0.114054
C      0.142198   -0.697023   -0.092914
C      1.421759    0.046861   -0.026921
O      1.535519    1.261239   -0.226080
O      2.608958   -0.634119    0.279159
C      3.854755    0.019758    0.355967
C      4.218757    0.682399   -0.973481
C      4.901057   -1.048888    0.594200
C      3.931912    1.058592    1.421975
C     -3.400905   -1.402627   -0.532274
C     -3.976299   -2.561775   -0.872443
C     -5.333512   -2.574591   -1.052785
S     -5.771487   -0.953789   -0.739543
C     -4.229492   -0.315470   -0.392145
C     -3.919206    1.088074   -0.030001
O     -4.912627    1.798363    0.211379
H     -2.617519    2.562654    1.990378
H     -3.330593    3.538990    0.665552
H     -1.563766    3.320345    0.759092
H     -1.562100    1.299313   -1.743148
H     -0.587309    1.794881   -0.366039
H     -1.658527   -3.389100    0.069018
H      3.858229    0.025960   -1.786939
H      5.327969    0.712133   -1.013740
H      3.794286    1.696100   -1.008159
H      5.085333   -1.643116   -0.330058
H      5.833778   -0.663385    1.015682
H      4.487237   -1.792941    1.331183
H      5.025484    1.246124    1.630988
H      3.553997    2.066364    1.078640
H      3.480163    0.784402    2.378305
H     -3.416083   -3.513085   -1.016027
H     -5.961753   -3.440782   -1.332907
