43

C      2.432026    1.907901   -1.092601
C      3.633112    2.480788   -1.753831
N      4.724211    1.647603   -1.419580
C      4.260194    0.582397   -0.587710
C      2.890986    0.704864   -0.375221
C      2.228225   -0.208690    0.401525
C      2.937625   -1.247781    0.968072
C      4.290435   -1.369484    0.758460
C      4.963505   -0.463894   -0.015547
C      0.743773   -0.144526    0.661900
C     -0.027921   -0.672063   -0.502969
N     -1.420163   -0.724275   -0.445367
C     -2.255975    0.370548   -0.455788
C     -2.349870    1.312761    0.681069
C     -3.433819    2.346255    0.273803
C     -1.840948   -1.724834    0.500065
C     -3.321078   -1.932495    0.597359
C     -3.943123   -2.363401   -0.695939
O      3.707289    3.506510   -2.478220
H      2.078603    2.677354   -0.350926
H      1.662372    1.734169   -1.858537
H      5.709974    1.803009   -1.738748
H      2.444841   -1.999480    1.598070
H      4.864120   -2.189635    1.201569
H      6.031618   -0.519690   -0.207793
H      0.519223    0.908963    0.877560
H      0.522223   -0.703402    1.602553
H      0.312452   -0.130302   -1.431484
H      0.424891   -1.713100   -0.692627
H     -1.959765    1.013466   -1.358664
H     -3.316848    0.009277   -0.652136
H     -1.444953    1.979623    0.798217
H     -2.607888    0.869550    1.644881
H     -3.299084    2.514758   -0.803165
H     -4.443407    1.937991    0.466457
H     -3.260219    3.275175    0.819055
H     -1.297629   -2.697381    0.325818
H     -1.473035   -1.385522    1.504143
H     -3.832955   -1.037599    0.974062
H     -3.518407   -2.744741    1.357843
H     -4.854260   -1.782708   -0.982272
H     -3.182696   -2.410884   -1.509481
H     -4.297653   -3.417076   -0.576322
