8

F      1.069611    1.262986    0.715878
C      0.708633    0.051313    0.219250
Br     1.788744   -0.360895   -1.322516
C     -0.765790   -0.051370   -0.081654
F     -1.058201   -1.299720   -0.579173
F     -1.509912    0.208849    1.053328
F     -1.158899    0.912669   -1.002363
H      0.925814   -0.723833    0.997250
