21

C     -3.084635   -0.256736    0.191333
N     -1.687444   -0.582043    0.299915
C     -1.231307   -1.741044    0.798830
N      0.111156   -1.680022    0.738681
C      0.484821   -0.500545    0.210177
N      1.710608    0.028574   -0.053140
C      2.868906   -0.776336    0.272481
C      1.783680    1.251474   -0.593303
O      2.949005    1.707553   -0.822971
N      0.686154    1.968931   -0.881937
C     -0.526738    1.449111   -0.623028
O     -1.563885    2.102107   -0.884776
C     -0.674982    0.197001   -0.068145
H     -3.568732   -1.130142   -0.336671
H     -3.308521    0.621242   -0.408171
H     -3.485750   -0.161553    1.224249
H     -1.789000   -2.591627    1.187104
H      3.632768   -0.088106    0.738829
H      2.609598   -1.553788    0.996212
H      3.256368   -1.177389   -0.684459
H      0.827931    2.913338   -1.301210
