34

C      3.681034    0.500678    0.165366
C      2.610930    1.206384   -0.566692
C      1.228315    0.957261   -0.103574
C      0.701873   -0.402950   -0.279711
C      1.425163   -1.462428    0.431702
C     -0.822664   -0.422239   -0.098449
C     -1.294484   -1.842164   -0.292211
C     -2.818971   -1.918158   -0.159031
C     -1.458136    0.381403   -1.153363
O     -1.496808   -0.108946   -2.322172
N     -2.031692    1.656936   -0.978488
C     -2.200253    2.179541    0.307871
S     -2.865543    3.656827    0.491997
N     -1.776471    1.384737    1.405974
C     -1.198210    0.099854    1.229578
O     -1.010692   -0.596329    2.258241
H      4.480328    1.313813    0.372739
H      3.366920    0.130475    1.145797
H      4.172096   -0.290035   -0.435671
H      2.804530    2.337617   -0.619741
H      2.731120    0.934938   -1.667212
H      0.530053    1.751944   -0.508920
H      1.143467    1.177698    1.024384
H      0.801848   -0.670575   -1.398711
H      0.963993   -2.489509    0.299404
H      2.429407   -1.613294   -0.015951
H      1.578710   -1.273909    1.518331
H     -0.885225   -2.463793    0.532238
H     -1.034600   -2.189187   -1.301291
H     -3.124588   -2.875247   -0.627272
H     -3.310992   -1.103655   -0.706672
H     -3.072781   -1.964890    0.904553
H     -2.344635    2.240820   -1.819876
H     -1.903041    1.776381    2.367404
