54

C      3.668800   -1.023272   -0.071764
C      2.544497   -0.801363    0.867686
C      1.222724   -0.802219    0.254101
N      0.423576    0.371247    0.197029
C     -0.886806    0.228806   -0.407747
C     -1.503899    1.511676   -0.826534
N     -1.214626    2.573264    0.122460
C      0.073493    2.773357    0.707692
C      0.968596    1.588616    0.717248
C     -2.268280    3.454348    0.480172
O     -3.442061    3.316424   -0.014500
C     -2.074884    4.574753    1.437081
C     -1.845723   -0.478410    0.526569
N     -3.126339   -0.591173   -0.149120
C     -3.090346   -1.488693   -1.269460
C     -4.426776   -2.191567   -1.206256
C     -4.525273   -2.441324    0.309889
O     -5.772892   -2.836239    0.710648
C     -4.165045   -1.017915    0.768519
O      0.787277   -1.888783   -0.236483
C      4.940918   -0.945904    0.457472
C      6.097055   -1.111648   -0.281792
C      5.953912   -1.371357   -1.639785
C      4.680405   -1.450828   -2.180209
C      3.559794   -1.279354   -1.403794
N      7.377478   -1.015153    0.312731
O      8.486916   -1.172518   -0.464130
O      7.473940   -0.797171    1.520597
H      2.785297    0.106802    1.451020
H      2.601128   -1.640904    1.624905
H     -0.777661   -0.423650   -1.317201
H     -1.106434    1.808101   -1.821878
H     -2.608790    1.366093   -0.862717
H     -0.042711    3.259671    1.705074
H      0.589922    3.557366    0.074008
H      1.278238    1.403925    1.774125
H      1.940383    1.777251    0.159331
H     -2.829825    5.372675    1.297426
H     -2.161629    4.238071    2.488331
H     -1.095918    5.041789    1.293021
H     -1.998842    0.101992    1.470541
H     -1.445735   -1.470234    0.835530
H     -2.299680   -2.291817   -1.151473
H     -2.970585   -0.939320   -2.232519
H     -5.199457   -1.460021   -1.532508
H     -4.445617   -3.146507   -1.775169
H     -3.702078   -3.113381    0.579790
H     -6.499212   -2.621690    0.076247
H     -3.886791   -0.969657    1.821234
H     -5.075081   -0.413535    0.537254
H      5.077901   -0.740541    1.529601
H      6.860318   -1.497703   -2.225078
H      4.546245   -1.652607   -3.233965
H      2.550183   -1.339771   -1.803246
