50

C     -1.293055    1.591062   -0.721723
C     -1.257057    1.984827   -2.058485
C     -2.057884    2.944291   -2.614090
C     -2.978056    3.582599   -1.805089
C     -3.048708    3.223632   -0.469175
C     -2.223165    2.246771    0.064376
C     -0.375250    0.571379   -0.262030
C     -0.680652   -0.855342   -0.449592
N     -1.858058   -1.411389    0.117472
C     -1.804817   -2.898056    0.014288
C     -3.225790   -3.347186    0.127330
C     -4.047538   -2.168803   -0.277651
C     -2.996328   -1.213355   -0.805594
N      0.244305    0.818311    1.047420
C      1.591079    1.171155    1.253336
O      1.953431    1.361494    2.471306
C      2.621249    1.340554    0.227153
C      3.759244    0.398960    0.413504
C      3.651876   -0.883588   -0.077415
C      4.687262   -1.801986    0.070610
C      5.842197   -1.409610    0.724583
C      5.964264   -0.118463    1.224884
C      4.903939    0.764874    1.053931
Cl     7.430324    0.357659    2.046910
Cl     7.175532   -2.498715    0.948413
C     -0.577840    0.627215    2.245533
H     -0.546510    1.517150   -2.761966
H     -2.006403    3.229446   -3.658870
H     -3.642464    4.351720   -2.181628
H     -3.766266    3.705202    0.209048
H     -2.337519    2.021988    1.104199
H      0.543988    0.714216   -0.956237
H      0.199807   -1.424137   -0.019983
H     -0.665676   -1.174609   -1.536277
H     -1.336519   -3.146662   -0.940888
H     -1.250637   -3.325168    0.872065
H     -3.385293   -4.207899   -0.574849
H     -3.477927   -3.741348    1.137467
H     -4.543597   -1.737063    0.632952
H     -4.773337   -2.479498   -1.058559
H     -2.685257   -1.611889   -1.788940
H     -3.329381   -0.190266   -0.854698
H      3.081425    2.365118    0.380376
H      2.332378    1.316629   -0.809627
H      2.746862   -1.156274   -0.576420
H      4.633188   -2.814522   -0.299979
H      4.988699    1.769225    1.437447
H     -1.503186    0.086240    2.074058
H      0.033786   -0.032875    2.932797
H     -0.710667    1.586991    2.728308
