52

C      0.380611   -0.534605   -0.349850
C      1.338392   -0.873882    0.575932
C      2.694605   -0.656349    0.299216
C      3.153968   -0.111543   -0.865200
N      4.502759    0.148867   -1.192030
C      5.572177    0.154768   -0.288245
C      6.963314    0.449529   -0.818382
C      7.945067    0.427783    0.361153
C      7.537699    1.483779    1.369134
O      5.413983   -0.073954    0.933599
C      2.155271    0.228105   -1.798992
C      0.829505    0.015487   -1.528878
C      0.967593   -1.458287    1.851665
C     -0.460463   -1.686589    2.151750
O      1.866422   -1.753907    2.665018
O     -0.970594   -0.729087   -0.126259
C     -1.969683   -0.388920   -1.054645
C     -3.348747   -0.702045   -0.579454
C     -4.373392   -0.180180   -1.538168
N     -5.723429   -0.380308   -1.092795
C     -6.050639    0.427983    0.072048
C     -5.945113    1.894948   -0.279205
C     -7.529582    0.173533    0.384103
O     -3.450027   -2.055016   -0.338746
H      3.434408   -0.946737    1.051344
H      4.719765    0.353779   -2.206804
H      7.232802   -0.418446   -1.451187
H      6.998326    1.398238   -1.362357
H      7.947061   -0.591875    0.792041
H      8.949174    0.668887    0.003177
H      6.891708    2.227918    0.817587
H      8.420204    2.024820    1.793269
H      6.981972    1.078795    2.229136
H      2.473121    0.668134   -2.749152
H      0.057929    0.280328   -2.255751
H     -1.011573   -0.719373    2.203453
H     -0.527816   -2.120398    3.185582
H     -0.934767   -2.411561    1.487791
H     -1.913177    0.736522   -1.143734
H     -1.723332   -0.807291   -2.047684
H     -3.503532   -0.197532    0.412174
H     -4.252548   -0.711551   -2.502539
H     -4.226203    0.909001   -1.667929
H     -6.427597   -0.302158   -1.838871
H     -5.435560    0.188392    0.938459
H     -4.907406    2.234127   -0.060440
H     -6.139572    2.087502   -1.344462
H     -6.677532    2.450728    0.339666
H     -7.911773    1.074881    0.912838
H     -7.608616   -0.737634    0.997076
H     -8.051375    0.113468   -0.586381
H     -4.353791   -2.351075   -0.054271
