32

O     -3.482164   -3.665721   -0.870014
N     -2.284307   -3.035219   -0.831914
O     -1.267895   -3.702465   -1.104503
C     -2.176553   -1.644673   -0.490179
C     -3.289719   -0.905071   -0.186653
C     -3.189629    0.444209    0.146454
C     -1.948361    1.003215    0.161075
N     -1.972458    2.429078    0.392888
C     -1.012596    3.314266   -0.197050
O     -1.134118    4.519660    0.108022
C      0.106488    3.000356   -1.120825
N      0.901528    1.875176   -0.674980
C      0.565331    0.724567   -0.166659
C      1.612450   -0.169276    0.179310
C      2.901067    0.168234   -0.319680
C      4.028691   -0.517040    0.021590
C      3.964408   -1.593260    0.886975
C      2.747319   -1.962581    1.403058
C      1.614923   -1.229067    1.028639
Cl     0.167888   -1.625186    1.959974
C     -0.795296    0.283071   -0.135713
C     -0.946540   -1.068295   -0.468409
H     -4.272545   -1.383093   -0.206575
H     -4.027681    1.062396    0.391764
H     -2.719826    2.771493    0.987370
H      0.760818    3.883989   -1.172985
H     -0.302961    2.800592   -2.113541
H      2.977380    1.009016   -1.002127
H      4.994502   -0.237178   -0.373813
H      4.839748   -2.158359    1.174597
H      2.678903   -2.798919    2.078725
H     -0.038796   -1.593914   -0.741106
