34

Cl     0.573724   -5.005787   -0.741170
C     -0.463814   -3.601122   -0.755318
C     -1.808788   -3.765884   -0.986559
C     -2.619411   -2.671987   -0.997792
C     -2.108708   -1.413930   -0.781895
S     -3.244128   -0.025126   -0.800796
C     -2.255077    1.405976   -0.462618
C     -2.932876    2.590290   -0.425235
C     -2.269792    3.773191   -0.181625
C     -0.910265    3.696474    0.018291
C     -0.218269    2.477723   -0.020993
C     -0.897394    1.295819   -0.266433
N     -0.167612    0.065399   -0.301946
C      1.269019    0.112209   -0.053167
C      1.638132    0.286331    1.381033
C      3.173030    0.327735    1.420363
N      3.617781   -0.952543    0.870949
C     -0.795986   -1.182939   -0.549285
C      0.019542   -2.304440   -0.539500
H     -2.187651   -4.781610   -1.155793
H     -3.678313   -2.797909   -1.179207
H     -4.015025    2.665281   -0.582822
H     -2.817953    4.708546   -0.153949
H     -0.395803    4.623034    0.208190
H      0.841172    2.569952    0.146370
H      1.848896   -0.681241   -0.534200
H      1.702304    1.040543   -0.575875
H      1.389050   -0.618535    1.995186
H      1.191030    1.121990    1.896072
H      3.581946    1.125412    0.802234
H      3.527917    0.349102    2.466593
H      4.484619   -1.285088    1.350673
H      3.846226   -0.842648   -0.152307
H      1.082479   -2.304219   -0.357474
