56

F     -5.560750   -4.670023    0.861434
C     -4.532687   -4.174159    0.051328
F     -4.642697   -4.835399   -1.154491
F     -3.290702   -4.486179    0.561042
C     -4.684133   -2.711964   -0.178300
C     -5.800176   -2.247788   -0.820648
C     -5.918856   -0.883419   -1.015456
C     -4.955416   -0.017788   -0.584646
S     -5.235958    1.695952   -0.910396
C     -3.848336    2.563872   -0.184389
C     -3.870979    3.950828   -0.273041
C     -2.836460    4.659724    0.268824
C     -1.790329    4.014167    0.891310
C     -1.819269    2.636011    0.951578
C     -2.849667    1.861230    0.413941
N     -2.809243    0.425477    0.543467
C     -1.611807   -0.133526    1.150277
C     -0.405849    0.023831    0.207242
C      0.846611   -0.464879    0.890586
N      2.037823   -0.326971    0.187740
C      2.314214   -1.052313   -0.965727
C      3.800340   -1.302842   -1.099965
N      4.515634   -0.080961   -1.093340
C      4.069092    0.949010   -0.243459
C      3.073025    0.432095    0.792459
C      5.868853   -0.106622   -1.507013
C      6.949899   -0.853466   -0.850253
C      6.881688    0.628971   -0.697441
C     -3.815905   -0.438196    0.064867
C     -3.722865   -1.827405    0.250405
H     -6.569675   -2.923466   -1.169435
H     -6.825857   -0.554399   -1.533670
H     -4.708639    4.459809   -0.774014
H     -2.826356    5.745737    0.210218
H     -0.964418    4.586112    1.314020
H     -0.983443    2.191302    1.480912
H     -1.385433    0.445697    2.071018
H     -1.645619   -1.185510    1.378231
H     -0.559531   -0.723645   -0.656106
H     -0.250105    1.003797   -0.207361
H      0.765562   -1.529630    1.240637
H      0.902800    0.117132    1.844150
H      1.774030   -2.032260   -0.966394
H      2.016476   -0.470159   -1.875550
H      4.048295   -1.832061   -2.050019
H      4.144802   -1.915573   -0.211841
H      3.452314    1.653652   -0.878460
H      4.784796    1.563855    0.274830
H      3.657813   -0.287746    1.440438
H      2.773258    1.262448    1.426874
H      5.980359    0.001107   -2.633467
H      6.811250   -1.513286    0.029060
H      7.787375   -1.253155   -1.494761
H      6.691760    1.037101    0.297910
H      7.656152    1.214668   -1.260012
H     -2.883059   -2.288792    0.741776
