22

C     -1.537847   -0.390321    0.627946
C     -0.842225    0.335329   -0.316077
N     -1.530361    1.289698   -0.969790
C     -2.829402    1.518083   -0.710554
C     -3.549236    0.808233    0.226786
C     -2.870017   -0.179762    0.916160
C      0.581794    0.118662   -0.644434
C      1.220130   -0.995658    0.125274
N      2.587539   -1.085245   -0.301977
C      3.429744   -0.004011    0.065328
H     -0.978182   -1.154859    1.149450
H     -3.396670    2.297157   -1.241114
H     -4.596300    1.010559    0.418345
H     -3.385967   -0.775884    1.672166
H      1.148494    1.037926   -0.446837
H      0.676191   -0.150922   -1.737618
H      1.164450   -0.717575    1.216123
H      0.751506   -1.984541   -0.071426
H      2.991021   -2.011615   -0.401162
H      3.278394    0.346227    1.111583
H      4.496061   -0.197215   -0.044328
H      3.190884    0.885733   -0.570372
