26

N      0.553540    0.578681    0.081267
C      1.803755    0.603934   -0.264795
S      1.876561   -0.586887   -1.483778
C      0.236032   -1.061002   -1.473072
C     -0.290861   -0.246142   -0.497198
C     -1.744032   -0.344118   -0.164008
C     -2.228042    0.503012    0.831448
C     -3.555039    0.470671    1.193116
C     -4.421328   -0.396823    0.578294
C     -3.914048   -1.219834   -0.399822
C     -2.578235   -1.210727   -0.787468
C      2.880465    1.486881    0.303097
C      3.559446    0.842158    1.472301
N      4.194723   -0.398175    1.184529
H     -0.284840   -1.823703   -2.085195
H     -1.555635    1.191349    1.323741
H     -3.878081    1.142545    1.964556
H     -5.469387   -0.430489    0.855766
H     -4.563383   -1.917691   -0.908538
H     -2.202384   -1.863507   -1.555395
H      2.419823    2.433097    0.651896
H      3.581090    1.743208   -0.514243
H      2.853117    0.702029    2.306075
H      4.333039    1.551737    1.832343
H      4.532516   -0.535018    0.235631
H      3.861188   -1.215186    1.694926
