44

O     -3.551697    2.462262   -0.606884
C     -2.177489    2.473675   -0.377595
C     -1.898176    2.315101    1.073832
C     -0.780301    1.782461    1.534833
C      0.241081    1.321604    0.597486
C      1.178720    0.271547    1.174843
C      0.450121   -0.900358    1.690780
C     -0.850293   -1.156738    1.040629
C     -1.720339   -2.146026    1.468904
C     -2.939600   -2.330498    0.823101
C     -3.288112   -1.518851   -0.256788
O     -4.486185   -1.673630   -0.918929
C     -2.427630   -0.531792   -0.688636
O     -2.418090    0.442500   -1.686931
C     -1.498640    1.482495   -1.251679
C     -0.413889    0.682213   -0.586103
C      0.534072    0.069808   -1.563763
C      1.937889    0.404623   -1.123639
N      2.183621    0.030228    0.208415
C      3.055260   -1.062818    0.419127
C      4.426281   -0.656495    0.016186
C      5.098306   -1.276936   -0.934244
C     -1.245494   -0.409468   -0.005663
H     -3.903906    3.346739   -0.333222
H     -1.837231    3.500881   -0.685160
H     -2.686644    2.671226    1.751606
H     -0.638228    1.695651    2.596360
H      0.864825    2.204491    0.284463
H      1.687691    0.793576    2.039679
H      1.073903   -1.815155    1.766492
H      0.186041   -0.686246    2.775530
H     -1.398495   -2.743725    2.309175
H     -3.619344   -3.103698    1.155866
H     -5.122543   -2.402305   -0.601224
H     -1.101446    1.953986   -2.157810
H      0.476124   -1.051812   -1.598501
H      0.396118    0.498744   -2.596833
H      2.637328   -0.130538   -1.798549
H      2.123269    1.495787   -1.299518
H      3.086935   -1.470933    1.420125
H      2.726129   -1.898652   -0.265465
H      4.889588    0.180487    0.523040
H      4.670525   -2.129903   -1.475124
H      6.079946   -0.983507   -1.221220
