48

O      5.216931    1.932961   -0.287229
C      3.863107    1.829045   -0.062597
C      3.168831    2.817144    0.630676
C      1.791694    2.714675    0.860778
C      1.132251    1.607452    0.383543
C     -0.308769    1.397930    0.567745
C     -0.773650   -0.005147    0.433443
N     -1.646759   -0.123800   -0.690681
C     -1.047104   -0.260485   -1.948815
C      0.435237   -0.169350   -2.023973
C      1.209343   -0.543818   -0.817262
C      2.429979   -1.389232   -1.067940
O      3.504307   -0.441160   -1.247056
C      3.186277    0.716891   -0.538962
C      1.856681    0.677667   -0.283684
C      2.807190   -2.234109    0.064517
O      3.929690   -2.730983    0.052973
C      1.944914   -2.540987    1.229783
C      0.973975   -1.424551    1.532171
C      0.291221   -1.056958    0.245994
O     -0.334068   -2.199518   -0.242481
C     -2.895603    0.546684   -0.595253
C     -3.827133   -0.048046    0.419978
C     -5.204192    0.607199    0.605986
C     -5.114378   -0.631539   -0.171356
H      5.711996    2.749285    0.063429
H      3.694070    3.685436    1.004111
H      1.255628    3.501337    1.412292
H     -0.680477    1.888341    1.508655
H     -0.785178    2.047550   -0.238641
H     -1.310635   -0.276266    1.375365
H     -1.389342   -1.241659   -2.394413
H     -1.473335    0.510385   -2.639880
H      0.734462    0.857327   -2.399387
H      0.769546   -0.847471   -2.862529
H      2.278169   -1.952507   -2.003787
H      1.401076   -3.478691    0.996072
H      2.569305   -2.769412    2.132045
H      1.488100   -0.580299    2.020715
H      0.181884   -1.884214    2.187396
H      0.327426   -2.838435   -0.609104
H     -3.389689    0.530833   -1.584595
H     -2.778876    1.632084   -0.289819
H     -3.424625   -0.631303    1.283015
H     -5.650062    0.575103    1.621407
H     -5.318523    1.580065    0.059646
H     -5.527965   -1.552906    0.257351
H     -5.272928   -0.552546   -1.269151
