41

C     -1.839749   -2.839371    0.912009
C     -1.941666   -1.524781    1.648979
N     -2.279801   -0.455815    0.727322
C     -3.572565   -0.097816    0.550995
C     -3.939249    0.923510   -0.286037
C     -5.357444    1.302848   -0.467825
O     -5.686679    2.326676   -1.310746
O     -6.262981    0.694500    0.143908
C     -2.969049    1.613486   -0.974135
O     -3.235316    2.562705   -1.758925
C     -1.646517    1.244175   -0.792019
C     -0.642311    1.915516   -1.477625
C      0.662917    1.527274   -1.288092
F      1.645700    2.179674   -1.954812
C      1.002079    0.495081   -0.440915
C      0.012856   -0.179314    0.245929
C     -1.313702    0.195656    0.071334
N      2.381194    0.109664   -0.262482
C      3.333164    1.087993    0.251174
C      4.419834    0.303721    0.968729
N      5.145144   -0.433448   -0.020567
C      4.328343   -1.119786   -0.973683
C      2.871244   -1.199641   -0.566964
H     -0.770717   -3.172738    0.808265
H     -2.349186   -3.671103    1.442816
H     -2.208188   -2.742909   -0.140086
H     -2.809827   -1.623608    2.374823
H     -1.052772   -1.351308    2.218494
H     -4.317924   -0.653034    1.101023
H     -6.524406    2.872338   -1.149234
H     -0.946197    2.717762   -2.131890
H      0.269137   -1.001673    0.908822
H      3.784712    1.588213   -0.617285
H      2.833407    1.808671    0.916438
H      5.107326    1.058528    1.414607
H      3.919652   -0.328943    1.719334
H      5.761170    0.224612   -0.533203
H      4.721178   -2.162959   -1.151451
H      4.370128   -0.646870   -1.999245
H      2.335269   -1.649474   -1.443706
H      2.761794   -1.898013    0.297681
