44

C     -2.573695   -1.580653   -2.455227
C     -2.567010   -1.992055   -0.989326
N     -2.836737   -0.823632   -0.177127
C     -4.098940   -0.483852    0.178887
C     -4.386720    0.603910    0.946107
C     -5.755234    0.968439    1.329504
O     -5.988443    2.080660    2.108014
O     -6.722775    0.268955    0.950478
C     -3.312835    1.375234    1.363264
O     -3.518008    2.390999    2.073533
C     -2.020083    1.056156    1.018099
C     -0.968085    1.861449    1.458197
C      0.334698    1.558775    1.120635
F      1.308932    2.375910    1.576725
C      0.569429    0.446317    0.341488
C     -0.477259   -0.342615   -0.087985
C     -1.799300   -0.072150    0.229921
N      1.893479    0.119465   -0.014837
C      2.774643    0.969052   -0.765522
C      4.048050    1.104812   -0.001958
N      4.653330   -0.106556    0.404720
C      5.970115   -0.311712   -0.176441
C      3.892751   -1.291422    0.247679
C      2.428005   -1.167393    0.397078
H     -2.197581   -0.545745   -2.597897
H     -3.589494   -1.614627   -2.892085
H     -1.892684   -2.314229   -2.975923
H     -3.451035   -2.673387   -0.812333
H     -1.699809   -2.575856   -0.695076
H     -4.903151   -1.111736   -0.167663
H     -6.894258    2.566860    2.137326
H     -1.223567    2.722121    2.068457
H     -0.242401   -1.200395   -0.697241
H      2.318434    1.981085   -0.847689
H      2.995521    0.593919   -1.784461
H      3.843184    1.720715    0.914680
H      4.738872    1.738332   -0.614070
H      6.229446    0.513635   -0.853301
H      6.024300   -1.305160   -0.696649
H      6.679234   -0.392093    0.684319
H      4.188623   -1.767595   -0.731383
H      4.252579   -2.028772    1.025253
H      1.948087   -1.919767   -0.297148
H      2.027390   -1.395401    1.393966
