61

C     -1.052632    0.170874   -0.099625
S      0.570845   -0.471936    0.140632
O      1.734992    0.701914    0.279582
O      0.919814   -1.436620   -0.971401
O      0.582563   -1.287037    1.415828
O      7.547696   -0.005469   -2.209526
C      6.683678    0.208755   -1.148446
C      7.175969    0.087014    0.128919
C      6.325521    0.297899    1.197011
C      4.995973    0.627699    0.980601
N      3.986467    0.887857    1.863522
C      2.890288    1.165346    1.146445
C      3.141527    1.097330   -0.206744
C      2.194306    1.336279   -1.325312
C      1.690329    0.101301   -1.982950
C      0.996874   -0.775208   -0.983392
C     -0.153480   -0.023036   -0.358826
N     -0.801391   -0.841333    0.598541
C     -1.556805   -1.921962    0.078332
C     -2.847346   -1.391691   -0.486135
C     -3.509920   -0.494524    0.466448
C     -2.873058    0.060005    1.457829
C     -1.416579   -0.175308    1.700953
C     -4.939834   -0.210743    0.289875
C     -5.622505   -0.784748   -0.784803
C     -6.976895   -0.565190   -1.011567
C     -7.697243    0.244640   -0.160064
C     -7.040911    0.815947    0.899173
C     -5.673840    0.587902    1.118868
C      4.489166    0.753005   -0.293819
C      5.353140    0.538391   -1.342026
H     -1.577523   -0.483764   -0.847780
H     -1.066682    1.200532   -0.482349
H     -1.687703    0.097610    0.822307
H      1.576325    1.508428   -0.257194
H      7.243936    0.069644   -3.168898
H      8.234986   -0.174091    0.291358
H      6.660171    0.213218    2.204204
H      4.093234    0.862547    2.898137
H      1.952125    1.408281    1.618339
H      2.792196    1.883315   -2.116377
H      1.397071    2.048725   -1.041782
H      0.897829    0.391891   -2.735691
H      2.456147   -0.424799   -2.569650
H      1.669416   -1.039468   -0.110004
H      0.644899   -1.698475   -1.480697
H      0.195938    0.931111    0.097455
H     -0.867890    0.271638   -1.169547
H     -1.866208   -2.567510    0.957947
H     -0.968229   -2.511350   -0.629338
H     -3.474514   -2.301917   -0.713819
H     -2.704202   -0.883533   -1.466889
H     -3.350934    0.738197    2.185966
H     -1.279959   -0.796900    2.611425
H     -0.950553    0.824612    1.848694
H     -5.073556   -1.415317   -1.462205
H     -7.485461   -1.020754   -1.848236
H     -8.757422    0.417785   -0.334220
H     -7.548615    1.448602    1.585212
H     -5.205411    1.063483    1.970270
H      4.933881    0.640906   -2.349760
