42

C      3.393598   -2.013789   -0.617582
N      2.408073   -0.957096   -0.819865
C      1.559692   -1.357896   -1.884455
C      0.250478   -0.626349   -1.964451
C     -0.408827   -0.450338   -0.640941
C      0.337471   -1.172461    0.427731
C     -0.340285   -0.927205    1.738711
C     -1.720280   -1.564617    1.639505
C     -2.551319   -0.850302    0.610482
O     -2.986473    0.360776    1.147469
C     -1.880030   -0.685759   -0.712316
O     -2.311002    0.586753   -1.237811
C     -1.537181    1.566644   -0.668957
C     -1.642222    2.937266   -0.396670
O     -2.815429    3.568391   -0.768437
C     -0.587904    3.602239    0.223931
C      0.588240    2.932183    0.588113
C      0.681394    1.597887    0.319044
C      1.887221    0.813825    0.681601
C      1.753127   -0.645912    0.414894
C     -0.369579    0.991867   -0.286889
H      3.048962   -2.785856    0.088098
H      3.736525   -2.428613   -1.575736
H      4.275048   -1.513120   -0.133919
H      2.099424   -1.160355   -2.846578
H      1.352208   -2.460775   -1.902973
H      0.387462    0.362341   -2.494266
H     -0.437234   -1.214945   -2.621749
H      0.387651   -2.252915    0.260513
H      0.218222   -1.272537    2.607578
H     -0.541092    0.169281    1.912594
H     -2.219072   -1.368126    2.633823
H     -1.676036   -2.650995    1.505475
H     -3.467635   -1.478896    0.442772
H     -3.669278    0.107643    1.846082
H     -2.089956   -1.498244   -1.425975
H     -3.016517    4.531026   -0.633454
H     -0.709268    4.665171    0.417310
H      1.397229    3.464319    1.069496
H      2.202499    1.020568    1.741312
H      2.727322    1.242063    0.061768
H      2.284776   -1.183139    1.254722
