31

O     -1.395488    3.914438   -0.393463
C     -0.654452    2.955348   -0.005079
N     -0.221150    2.734329    1.354609
C      0.588101    1.561270    1.359278
O      1.427534    1.284297    2.246399
C      0.188752    0.827634    0.124776
N     -0.087914    1.903602   -0.769241
C      1.243897   -0.091241   -0.369037
C      2.461638    0.406727   -0.784076
C      3.477902   -0.400968   -1.253174
C      3.306930   -1.784358   -1.327062
C      2.092962   -2.286351   -0.913866
C      1.078267   -1.460328   -0.443358
C     -1.056215    0.051873    0.322150
C     -2.029788    0.046437   -0.680599
C     -3.166478   -0.680361   -0.468584
C     -3.333287   -1.378044    0.695318
C     -2.388285   -1.387075    1.695522
C     -1.241682   -0.659238    1.492873
H     -0.446707    3.314200    2.197998
H      0.081417    1.935432   -1.778990
H      2.601005    1.492510   -0.728224
H      4.425112   -0.015369   -1.575311
H      4.109536   -2.401579   -1.695071
H      1.943168   -3.373797   -0.966420
H      0.139184   -1.887745   -0.128962
H     -1.871387    0.615711   -1.605642
H     -3.950306   -0.701996   -1.239666
H     -4.260804   -1.939668    0.806440
H     -2.588073   -1.959513    2.581653
H     -0.473389   -0.636177    2.248810
