63

C     -2.641657   -1.086330   -2.445882
C     -1.723338   -0.484554   -1.401885
C     -0.348198   -1.164100   -1.583715
N      0.661092   -0.740054   -0.733713
C      1.220467    0.549312   -0.844850
C      2.734944    0.302043   -1.067206
N      3.269278   -0.423892    0.056596
C      3.749058    0.396248    1.110289
C      5.025451    1.160752    0.783776
O      6.060776    0.249962    0.489773
C      7.226325    0.921885    0.206198
C      8.329836   -0.094472   -0.086206
O      8.479837   -0.896260    1.070309
C      2.560777   -1.578753    0.456134
C      1.050602   -1.483155    0.384549
C     -2.187567   -0.625227    0.006490
N     -3.472327   -0.036377    0.318565
C     -4.651031   -0.823289    0.180254
C     -4.541259   -2.170071   -0.176627
C     -5.641896   -3.004694   -0.304843
C     -6.894459   -2.531043   -0.082575
C     -7.038081   -1.211340    0.271465
C     -5.931936   -0.411452    0.390344
S     -6.250813    1.267709    0.863580
C     -4.665086    2.039098    1.002624
C     -4.687388    3.351143    1.388363
C     -3.522962    4.056755    1.512304
C     -2.348789    3.408907    1.237922
C     -2.350675    2.074144    0.846803
C     -3.520256    1.338640    0.717172
H     -2.253210   -0.846213   -3.485388
H     -2.594679   -2.193924   -2.414264
H     -3.647970   -0.657462   -2.435831
H     -1.544352    0.565536   -1.699190
H     -0.074358   -1.121052   -2.670333
H     -0.553822   -2.252984   -1.343839
H      0.895465    1.099002   -1.742356
H      1.205896    1.157327    0.087782
H      3.254271    1.260922   -1.149972
H      2.899163   -0.294635   -1.989663
H      2.963977    1.116630    1.486957
H      3.985148   -0.249312    1.988081
H      5.328603    1.687628    1.706231
H      4.882944    1.881095   -0.058028
H      7.059270    1.502265   -0.736640
H      7.467587    1.562427    1.064272
H      8.030602   -0.731494   -0.934233
H      9.286988    0.414792   -0.240048
H      8.802961   -0.298632    1.786687
H      2.808180   -1.769292    1.545478
H      2.945307   -2.474291   -0.078732
H      0.655655   -1.171931    1.374216
H      0.698361   -2.547556    0.220104
H     -2.163308   -1.698442    0.362072
H     -1.362393   -0.185469    0.648286
H     -3.608288   -2.657299   -0.357842
H     -5.539884   -4.048452   -0.581971
H     -7.771448   -3.182713   -0.185283
H     -8.033210   -0.832518    0.448937
H     -5.608886    3.886670    1.618932
H     -3.563445    5.103188    1.823337
H     -1.426204    3.957329    1.336080
H     -1.375647    1.667327    0.643759
