18

C     -1.362204    1.528118   -0.113273
C     -0.126486    0.701051   -0.115534
C      1.106201    1.261669   -0.381278
C      2.227685    0.455551   -0.372781
C      2.096595   -0.890061   -0.099983
C      0.847886   -1.452846    0.168244
C     -0.277962   -0.648499    0.160642
C     -1.626596   -1.207296    0.441006
H     -2.063888    1.148232   -0.869965
H     -1.089933    2.603306   -0.326076
H     -1.847053    1.549975    0.898817
H      1.136200    2.322954   -0.586954
H      3.215004    0.891490   -0.583144
H      2.944074   -1.533148   -0.087111
H      0.744304   -2.513961    0.383406
H     -2.419525   -0.737680   -0.176620
H     -1.875213   -1.184515    1.527265
H     -1.629088   -2.294340    0.133341
