22

N      1.536646    1.009314   -0.237846
C      2.863438    0.962860   -0.536564
C      3.631604   -0.159185   -0.280282
C      2.987071   -1.232541    0.294918
C      0.874614   -0.024669    0.325907
C      1.630743   -1.148477    0.586148
C     -0.574256    0.054407    0.638089
C     -1.453913   -0.413195   -0.474782
N     -2.836534   -0.303129   -0.101364
C     -3.307593    1.041490    0.034552
H      3.362335    1.825471   -0.994021
H      4.684250   -0.153011   -0.535269
H      3.578652   -2.106010    0.495935
H      1.115989   -1.991181    1.040880
H     -0.785671   -0.557076    1.537825
H     -0.798031    1.142844    0.793413
H     -1.288356    0.155361   -1.397889
H     -1.261247   -1.513723   -0.647929
H     -3.497598   -0.818174   -0.710956
H     -3.326693    1.559365   -0.949969
H     -4.368754    1.002046    0.375186
H     -2.766699    1.667213    0.744017
