12

C      1.093483   -0.576918    0.280557
C      0.111096    0.267511   -0.481751
C     -1.280532   -0.123138   -0.002574
O      0.344904    1.621938   -0.379578
H      2.004307    0.010480    0.505055
H      1.395610   -1.475718   -0.316770
H      0.658330   -0.996960    1.222288
H      0.232479   -0.000851   -1.566673
H     -1.940679    0.731632   -0.201953
H     -1.274069   -0.459046    1.050088
H     -1.627222   -0.987518   -0.625808
H      0.282292    1.988587    0.517120
