31

N     -1.365927    2.846318   -0.889435
C     -0.125647    2.136988   -0.713157
O      0.909445    2.777842   -1.101600
N      0.009295    0.852321   -0.178346
C      1.329902    0.313131   -0.108766
C      2.234070    1.278595    0.269045
C      3.570649    0.956171    0.381609
C      3.971754   -0.339666    0.111460
C      3.025566   -1.263531   -0.260233
C      1.678344   -1.007492   -0.391895
C      0.842653   -2.156723   -0.798794
O     -0.075877   -1.948729   -1.856832
C     -0.493945   -2.283179   -0.471420
C     -1.336608   -1.234359    0.061087
C     -2.563172   -1.685609    0.515330
C     -3.499454   -0.865782    1.081923
C     -3.264090    0.485557    1.234675
C     -2.061205    0.987666    0.800981
C     -1.152136    0.131675    0.236584
H     -2.121957    2.339751   -1.367894
H     -1.517251    3.817357   -0.567950
H      1.913363    2.288016    0.509230
H      4.322069    1.674764    0.671986
H      5.033785   -0.623689    0.193846
H      3.360152   -2.274987   -0.467343
H      1.447371   -3.070208   -0.972572
H     -0.946548   -3.316020   -0.410912
H     -2.789715   -2.743135    0.415281
H     -4.469216   -1.227683    1.439243
H     -4.027138    1.120104    1.689323
H     -1.838531    2.034534    0.945545
