53

C     -1.170720    1.164834    1.593831
C     -2.389023    0.893458    2.197654
N     -3.323484    0.264502    1.459954
C     -3.162441   -0.117097    0.186805
C     -1.965348    0.136252   -0.438676
C     -0.952590    0.791406    0.290284
C      0.328977    0.949294   -0.351311
N      1.561378    0.672302    0.234114
C      2.828174    0.863489   -0.461320
C      3.662310    1.935824    0.218990
C      4.958451    2.101375   -0.528720
C      3.579434   -0.410868   -0.589857
C      4.189783   -0.801114   -1.772664
C      4.888489   -1.984363   -1.895459
C      4.999595   -2.831799   -0.812854
C      4.397425   -2.456550    0.370427
C      3.696330   -1.273480    0.500709
O      0.313470    1.366393   -1.542643
C     -1.697260   -0.269376   -1.832862
C     -4.267227   -0.800095   -0.519554
C     -4.659359   -0.435625   -1.776995
C     -5.683461   -1.106886   -2.385225
C     -6.324082   -2.141270   -1.752135
C     -5.950613   -2.529883   -0.485530
C     -4.917222   -1.838808    0.105270
C     -2.651828    1.279022    3.510177
C     -1.720190    1.947953    4.267144
C     -0.512085    2.224002    3.674055
C     -0.245639    1.838585    2.359977
H      1.650410    0.275673    1.193301
H      2.578718    1.246859   -1.471683
H      3.040537    2.854774    0.227860
H      3.938684    1.608943    1.257831
H      4.881663    1.917205   -1.605443
H      5.754204    1.448133   -0.080135
H      5.369124    3.145263   -0.420798
H      4.087141   -0.108368   -2.622113
H      5.347032   -2.247578   -2.834178
H      5.548344   -3.774920   -0.886195
H      4.473748   -3.109364    1.232261
H      3.227374   -0.994545    1.444452
H     -1.734537    0.606461   -2.505526
H     -2.335291   -1.122023   -2.157001
H     -0.648713   -0.685244   -1.928971
H     -4.156870    0.392711   -2.288824
H     -6.020937   -0.838383   -3.393413
H     -7.150767   -2.691854   -2.228732
H     -6.446050   -3.355609    0.046802
H     -4.619686   -2.153944    1.123471
H     -3.605383    1.055551    3.960983
H     -1.920980    2.252325    5.298369
H      0.236139    2.748823    4.244909
H      0.694852    2.097633    1.895161
