47

C      5.296622   -0.356782   -1.592646
N      4.665919   -1.154990   -0.561448
C      3.535552   -1.875910   -1.093875
C      2.346117   -0.965605   -1.379887
N      2.262371    0.053959   -0.369409
C      2.833775   -0.421616    0.836695
C      4.359626   -0.402243    0.630051
C      0.980811    0.710942   -0.264618
C     -0.085097   -0.092363    0.252384
O      0.243089   -1.314900    0.569153
N     -1.432492    0.192742    0.467569
C     -1.909091    1.537172    0.385266
C     -1.013361    2.361383    1.038557
C     -1.294053    3.710659    1.024810
C     -2.433418    4.202000    0.380114
C     -3.316094    3.367727   -0.261499
C     -3.041141    2.020017   -0.251676
C     -4.087556    1.210674   -0.923208
O     -4.679748    1.797432   -1.828765
N     -4.420563   -0.139255   -0.584693
C     -3.653434   -1.057102    0.180054
C     -4.365227   -2.231479    0.448218
C     -3.713421   -3.210363    1.172592
C     -2.419516   -3.021440    1.603415
N     -1.728182   -1.888646    1.347339
C     -2.344409   -0.931665    0.647889
H      6.037419    0.346195   -1.192971
H      5.855865   -1.073488   -2.237253
H      4.531916    0.110171   -2.231253
H      3.272234   -2.744418   -0.463523
H      3.847881   -2.277936   -2.079925
H      2.416278   -0.539123   -2.408474
H      1.443809   -1.598276   -1.323141
H      2.654822    0.202886    1.727846
H      2.578660   -1.481529    0.981592
H      4.862448   -0.783174    1.540353
H      4.614845    0.654545    0.434523
H      0.725837    0.930026   -1.377742
H      1.180296    1.701629    0.131764
H     -0.202800    1.899626    1.541891
H     -0.598239    4.378774    1.530692
H     -2.621958    5.257874    0.389026
H     -4.212795    3.667022   -0.778061
H     -5.339299   -0.466344   -0.957203
H     -5.379500   -2.330218    0.085945
H     -4.278505   -4.107838    1.369329
H     -1.976295   -3.846753    2.169865
