57

C     -3.943047   -4.049446    1.245267
C     -4.170185   -2.720030    1.447666
C     -3.216619   -1.803319    1.082043
C     -2.010364   -2.237528    0.497042
N     -0.909995   -1.286621    0.340361
C     -1.410408    0.106841    0.224872
C     -2.654784    0.129734   -0.725098
N     -3.334231    1.344700   -0.791975
C     -2.936891    2.529170   -1.330127
C     -4.169200    3.468214   -1.195767
C     -5.294417    2.476968   -1.374027
C     -4.772467    1.234517   -0.675214
C     -0.412531    0.843511   -0.717802
C      0.411940   -1.632391    0.036078
C      0.878395   -2.928129   -0.204035
C      2.182461   -3.300006   -0.257793
C      3.178174   -2.350573   -0.064459
C      2.795524   -1.056060    0.179521
C      3.783980    0.006236    0.400982
O      3.409015    1.229484    0.423768
N      5.163459   -0.235010    0.597729
C      6.070432    0.863839    0.806428
C      6.127930    1.839861   -0.336094
C      7.113448    2.936145    0.014098
C      1.481504   -0.731274    0.226801
S     -0.353877   -4.219760   -0.455303
C     -1.827792   -3.577519    0.314516
C     -2.771320   -4.484077    0.678904
H     -4.734271   -4.733611    1.555612
H     -5.103697   -2.352965    1.899775
H     -3.339410   -0.747068    1.294556
H     -1.556530    0.539598    1.161982
H     -2.152248    0.107849   -1.825104
H     -3.188303   -0.790180   -0.828766
H     -2.161085    3.068516   -0.732906
H     -2.741776    2.567626   -2.430197
H     -4.169628    3.930530   -0.206295
H     -4.134460    4.246083   -1.966730
H     -5.494341    2.322534   -2.435560
H     -6.198158    2.890111   -0.859766
H     -5.195687    0.300514   -1.031573
H     -5.009815    1.364496    0.400019
H      0.187820    0.135311   -1.319084
H     -1.009141    1.294294   -1.615478
H      0.014015    1.732904   -0.306776
H      2.517695   -4.319187   -0.447405
H      4.224062   -2.611189   -0.103654
H      5.510995   -1.238576    0.590776
H      5.785955    1.462477    1.715362
H      7.111767    0.494452    0.977898
H      6.544657    1.318594   -1.234560
H      5.176139    2.314177   -0.596360
H      8.056230    2.483262    0.367046
H      7.327183    3.518038   -0.909703
H      6.721814    3.583699    0.812698
H      1.243150    0.269436    0.543638
H     -2.641063   -5.549200    0.542083
