43

C      5.792587   -0.531453   -0.285495
N      4.346402   -0.544904   -0.407200
C      3.922489    0.808791   -0.548638
C      2.390625    0.966800   -0.597658
N      1.827970    0.119885    0.469600
C      2.835944   -0.266703    1.420805
C      3.737808   -1.264137    0.695671
C      0.467818   -0.224771    0.570618
C      0.076667   -1.140111    1.521915
F      0.925328   -1.811873    2.352536
C     -1.263655   -1.441304    1.645131
C     -2.231467   -0.875356    0.865037
C     -3.570354   -1.240980    1.057824
O     -3.843260   -2.084047    1.950603
C     -4.504501   -0.652798    0.255847
C     -4.123581    0.246274   -0.682589
N     -2.817618    0.619780   -0.889544
C     -2.609770    1.574092   -1.958274
C     -1.567054    2.590817   -1.577131
S     -0.037656    1.571765   -1.387402
C     -0.523098    0.326146   -0.195327
C     -1.884595    0.055403   -0.112288
C     -5.904898   -1.042028    0.465776
O     -6.878699   -0.466708   -0.328227
O     -6.253929   -1.872182    1.332705
H      6.256064   -1.461429   -0.670942
H      6.106066   -0.331457    0.775591
H      6.178692    0.308610   -0.914773
H      4.397782    1.541158    0.110834
H      4.273289    1.121003   -1.588384
H      2.133750    0.566741   -1.597296
H      2.221518    2.032218   -0.434040
H      3.500188    0.653761    1.621637
H      2.532718   -0.557118    2.408050
H      3.064789   -2.022210    0.244490
H      4.470969   -1.723853    1.370302
H     -1.582222   -2.171883    2.405504
H     -4.918175    0.683541   -1.295131
H     -3.555304    2.102614   -2.181942
H     -2.285146    1.065349   -2.892091
H     -1.418308    3.368692   -2.321106
H     -1.808912    2.970365   -0.560859
H     -7.877264   -0.521023   -0.114137
