38

C     -4.585389    0.745642    0.023101
C     -3.243999    0.022133    0.258327
C     -3.143924   -1.044897   -0.774201
C     -3.389035   -0.657887    1.618721
N     -2.260168    1.011860    0.282748
C     -0.957873    0.782507   -0.181181
C     -0.130953   -0.170196    0.665590
O     -0.677307   -1.417386    0.766381
C      1.251251   -0.253547    0.134743
C      1.519627   -1.077677   -0.941337
C      2.806814   -1.155959   -1.431890
C      3.851269   -0.440200   -0.890939
O      5.119774   -0.561505   -1.427639
C      3.580540    0.375554    0.175704
C      4.722975    1.152378    0.763968
O      4.279089    1.924039    1.825469
C      2.293089    0.460582    0.674496
H     -4.722587    1.437865    0.853933
H     -4.449417    1.280898   -0.936879
H     -5.399924   -0.013149   -0.057265
H     -4.071487   -1.045457   -1.381679
H     -2.337776   -0.846473   -1.528350
H     -3.064960   -2.078781   -0.363808
H     -4.372288   -0.462499    2.090026
H     -2.622902   -0.216092    2.298804
H     -3.288126   -1.756592    1.545695
H     -2.550802    1.983086    0.453239
H     -0.404202    1.770603   -0.101291
H     -0.885616    0.538827   -1.261677
H     -0.038715    0.285600    1.682374
H     -0.028753   -2.092979    0.440433
H      0.725364   -1.664697   -1.404684
H      3.039680   -1.795169   -2.272640
H      5.864425   -0.020189   -1.004379
H      5.521439    0.451004    1.099177
H      5.159075    1.758915   -0.046658
H      4.768529    1.666505    2.628093
H      2.123261    1.123334    1.524069
