49

C      4.071777    0.651663    0.212332
C      4.237957    1.758202    1.051712
C      5.165604    2.730461    0.746970
C      5.955428    2.638599   -0.394146
C      5.806945    1.565980   -1.224588
C      4.871383    0.600663   -0.902685
Cl     6.760830    1.377318   -2.682296
Cl     7.123771    3.871692   -0.767109
C      3.064465   -0.389430    0.553352
C      1.770010   -0.089712   -0.096809
N      0.640843   -0.922513    0.088304
C     -0.648953   -0.632609   -0.562380
C     -1.302806    0.391124    0.289290
N     -2.522080    0.924099    0.004122
C     -3.756549    0.286298    0.063565
C     -4.601064    1.469604    0.617109
C     -4.106041    2.546432   -0.359460
C     -2.686684    2.104671   -0.749720
O     -5.943271    1.236759    0.510414
C     -1.393776   -1.902538   -0.696056
N     -0.956050   -3.102424   -0.349817
C      0.348589   -3.312403    0.214389
C      0.772583   -2.074869    0.947255
C     -1.912655   -4.037541   -0.625180
C     -2.993937   -3.384313   -1.168485
N     -2.649705   -2.097155   -1.198116
O      1.674903    0.930795   -0.830690
H      3.647510    1.866190    1.942205
H      5.315118    3.604394    1.385121
H      4.744480   -0.266097   -1.564919
H      3.484993   -1.354208    0.168630
H      2.953185   -0.496778    1.655486
H     -0.464913   -0.267155   -1.593556
H     -0.574521    1.251429    0.496003
H     -1.345635   -0.082458    1.334366
H     -3.855640   -0.570376    0.758207
H     -4.275720    0.077849   -0.910183
H     -4.217188    1.646193    1.625724
H     -4.776818    2.531822   -1.220014
H     -4.059869    3.508855    0.166619
H     -2.674797    1.957343   -1.849769
H     -1.972447    2.922384   -0.519097
H     -6.190417    1.256536   -0.442479
H      1.071811   -3.573808   -0.591733
H      0.369692   -4.150038    0.943406
H      0.024256   -1.929810    1.776647
H      1.785125   -2.145025    1.362538
H     -1.846035   -5.103948   -0.452169
H     -3.933689   -3.822146   -1.504187
