47

C     -3.345295    1.254453    0.775521
C     -3.858760    2.123023   -0.154684
C     -5.157929    2.591728   -0.113758
C     -5.967267    2.150126    0.927681
C     -5.470472    1.283775    1.863539
C     -4.157444    0.835935    1.786459
Cl    -6.493760    0.726079    3.178792
Cl    -7.632087    2.695460    1.056971
C     -1.936935    0.781156    0.685185
C     -1.905880   -0.456691   -0.133874
N     -0.697923   -1.153797   -0.397939
C      0.541604   -0.609962    0.152530
C      1.304124    0.243225   -0.795540
N      2.479207    0.738707   -0.241160
C      3.582710   -0.065713    0.041980
C      4.696270    0.516610   -0.825087
C      4.209948    1.878799   -1.249904
C      2.917605    2.049290   -0.481677
C      1.280677   -1.775505    0.688460
N      1.296587   -2.907435   -0.019895
C      0.614001   -2.970429   -1.287577
C     -0.737758   -2.361094   -1.174607
N      2.011159   -3.782409    0.696540
C      2.449051   -3.242204    1.836794
N      1.991648   -1.980289    1.835092
O     -2.999890   -0.914690   -0.618861
H     -3.231010    2.476138   -0.977403
H     -5.572986    3.275350   -0.839659
H     -3.770415    0.158462    2.519333
H     -1.332017    1.572891    0.228163
H     -1.601612    0.567930    1.723176
H      0.237338   -0.015675    1.072582
H      0.632244    1.137080   -1.017048
H      1.454757   -0.328177   -1.745320
H      3.407427   -1.106495   -0.344257
H      3.903388   -0.089902    1.107087
H      4.909104   -0.136820   -1.693579
H      5.612251    0.594332   -0.171429
H      4.931319    2.657828   -0.916942
H      4.062409    1.876894   -2.345300
H      3.085504    2.662065    0.435368
H      2.173011    2.596880   -1.127197
H      1.225612   -2.616669   -2.147064
H      0.437940   -4.078797   -1.456985
H     -1.471046   -3.099545   -0.778626
H     -1.150741   -2.083261   -2.187091
H      3.044331   -3.668653    2.631209
