54

C      3.541957    0.375320    0.370103
C      3.885955    1.676490    0.711814
C      4.992304    2.286484    0.158877
C      5.790739    1.606489   -0.757892
C      5.455364    0.320151   -1.099213
C      4.345295   -0.274512   -0.536370
Cl     6.447645   -0.555006   -2.251978
Cl     7.182911    2.401887   -1.441238
C      2.349251   -0.227531    0.991013
C      1.102223    0.025364    0.192582
N     -0.106879   -0.479752    0.666107
C     -1.410008   -0.315927    0.018434
C     -1.413926    0.637666   -1.114930
N     -1.025807    1.956740   -0.717009
C     -0.953006    2.865505   -1.856159
C     -1.941715    3.973479   -1.617318
C     -2.933528    3.276846   -0.700260
C     -1.938993    2.537600    0.209389
O     -1.358030    5.000973   -0.858011
C     -1.710509   -1.746842   -0.445618
N     -1.862559   -2.597979    0.676110
C     -1.016562   -2.470471    1.779563
C     -0.155324   -1.257824    1.887683
C     -2.140483   -3.924752    0.220702
C     -2.332576   -4.936798    1.326959
O     -2.593750   -6.174442    0.720256
O      1.265202    0.689808   -0.862454
H      3.259515    2.203697    1.428066
H      5.265639    3.312963    0.426509
H      4.085734   -1.301729   -0.815235
H      2.142054    0.146904    2.013387
H      2.547085   -1.332853    1.021482
H     -2.117138   -0.048835    0.828731
H     -0.791592    0.300246   -1.976291
H     -2.460482    0.710541   -1.533686
H      0.058755    3.282877   -1.899274
H     -1.195479    2.323714   -2.810779
H     -2.400659    4.368309   -2.527069
H     -3.540496    3.990037   -0.125582
H     -3.550076    2.548663   -1.246132
H     -2.462080    1.881314    0.890694
H     -1.401799    3.357424    0.740823
H     -2.015669    5.381492   -0.199401
H     -2.609613   -1.784520   -1.075899
H     -0.851475   -2.067916   -1.065387
H     -0.335235   -3.361787    1.833589
H     -1.634417   -2.538500    2.722508
H     -0.528436   -0.566170    2.676861
H      0.885217   -1.501608    2.171158
H     -3.134577   -3.877537   -0.315000
H     -1.414750   -4.243273   -0.527075
H     -3.233661   -4.714922    1.937199
H     -1.492086   -5.023079    2.017070
H     -2.539471   -6.114421   -0.262414
