50

F      9.769842    0.359308   -0.007694
C      8.432782    0.203165   -0.209391
C      7.853277    0.365026   -1.446336
C      6.489314    0.196879   -1.607933
C      5.663447   -0.134644   -0.555889
C      6.273695   -0.289262    0.667561
C      7.620762   -0.127669    0.849637
C      4.236265   -0.324723   -0.660681
O      3.697653   -0.183457   -1.776849
C      3.455393   -0.675787    0.530551
C      1.985135   -0.816488    0.326844
C      1.280147    0.408427   -0.148647
N     -0.148060    0.154675   -0.322547
C     -0.841794    1.319564   -0.765895
C     -1.933589    1.773907    0.185764
C     -2.838973    0.582627    0.463705
C     -2.211779   -0.499386    0.771170
C     -0.707628   -0.480945    0.817704
N     -4.231760    0.699263    0.302751
C     -4.944589    1.860211    0.350858
O     -4.454366    2.981434    0.607442
N     -6.222454    1.629912    0.090431
C     -6.360849    0.316860   -0.131840
C     -7.472326   -0.430044   -0.458637
C     -7.396818   -1.776810   -0.670072
C     -6.183420   -2.403010   -0.555141
C     -5.054277   -1.644097   -0.222482
C     -5.099416   -0.281305    0.000159
H      8.497453    0.623129   -2.264676
H      6.015606    0.320925   -2.577653
H      5.660819   -0.552900    1.536222
H      8.046730   -0.262376    1.837398
H      3.696003    0.010319    1.399087
H      3.807419   -1.681677    0.914408
H      1.795860   -1.709231   -0.279452
H      1.565738   -1.061178    1.344709
H      1.692306    0.703214   -1.133148
H      1.357021    1.256807    0.569063
H     -0.099967    2.168552   -0.788830
H     -1.269333    1.251326   -1.777746
H     -2.513294    2.521342   -0.358670
H     -1.487397    2.114657    1.132049
H     -2.701866   -1.403606    1.042745
H     -0.319103   -1.525579    0.841199
H     -0.420663    0.041362    1.753528
H     -7.004998    2.318565    0.055989
H     -8.451324    0.031134   -0.559405
H     -8.294897   -2.336984   -0.926239
H     -6.105621   -3.451536   -0.717460
H     -4.122108   -2.159896   -0.175115
