23

C     -1.827521   -1.685680   -1.154845
C     -1.943171   -0.658003   -0.058796
C     -0.676906    0.105265    0.079065
C     -0.751462    1.420735   -0.108911
C     -2.064112    2.052981   -0.440070
C      0.568807   -0.578331    0.404533
O      0.533170   -1.838277    0.564484
N      1.797959    0.087265    0.548401
C      3.026102   -0.593214    0.870138
N      4.249302    0.107236    1.008331
O      2.937084   -1.840664    1.018304
H     -1.262089   -2.550414   -0.750470
H     -2.848521   -1.942698   -1.480039
H     -1.237382   -1.312177   -2.017616
H     -2.043179   -1.239635    0.906049
H     -2.810358   -0.009051   -0.161921
H      0.134747    2.024424   -0.021347
H     -2.413191    1.565326   -1.393024
H     -2.799891    1.959541    0.367799
H     -1.882484    3.097119   -0.685102
H      1.884344    1.118128    0.428349
H      4.427288    0.803083    1.752080
H      5.001465   -0.092959    0.324607
