39

Cl     0.000000    0.000000    0.000000
C     -4.060424   -0.438487   -0.375188
N     -3.493646   -0.338356    0.952428
C     -2.048479   -0.426379    0.948360
C     -1.538723   -1.731994    0.445751
C     -0.152172   -1.661780   -0.154939
C      0.586510   -0.522190    0.477217
C      2.026744   -0.495605    0.229526
C      2.855919   -0.037868    1.231711
C      4.229645    0.037165    1.121054
C      4.779844   -0.374474   -0.068653
Cl     6.524421   -0.294843   -0.250207
C      3.966345   -0.842997   -1.102870
Cl     4.724854   -1.356077   -2.601072
C      2.598060   -0.901406   -0.950235
C     -0.103418    0.725102    0.031932
C      0.525013    1.779586   -0.582905
C     -0.219200    2.874836   -0.949197
C     -1.585451    2.913336   -0.701368
C     -2.212238    1.842163   -0.079185
C     -1.457034    0.755255    0.281301
H      0.000000    0.000000    0.000000
H     -3.350870   -0.149317   -1.176955
H     -4.939934    0.230044   -0.435206
H     -4.425188   -1.484676   -0.490698
H     -3.939916   -1.011219    1.587976
H     -1.742597   -0.330419    2.031976
H     -2.249182   -2.239854   -0.265384
H     -1.478611   -2.442751    1.314261
H     -0.257423   -1.428694   -1.249972
H      0.379789   -2.631367   -0.072407
H      0.391704   -0.586437    1.577126
H      2.415055    0.293468    2.187736
H      4.830562    0.411967    1.959496
H      1.970407   -1.270377   -1.765385
H      1.579788    1.709048   -0.755596
H      0.256185    3.710851   -1.431961
H     -2.111494    3.801630   -1.013064
H     -3.274844    1.913118    0.094595
