25

C     -1.568966    1.364881   -1.049765
C     -0.384356    1.180493   -0.168505
C      0.092269   -0.200072    0.065350
C      0.493391   -0.933586   -1.193230
C     -0.862519   -0.993813    0.881562
C     -2.228284   -1.183934    0.326934
O      1.294730   -0.134398    0.850920
C      2.454631    0.464569    0.484520
N      3.536346    0.431365    1.406099
O      2.523559    1.014105   -0.634352
H     -2.440574    1.875030   -0.545130
H     -1.281712    2.136987   -1.833645
H     -1.871403    0.496168   -1.648731
H     -0.706455    1.613194    0.836946
H      0.439505    1.877496   -0.464449
H      0.994703   -0.271736   -1.920054
H      1.223596   -1.720991   -0.912899
H     -0.335732   -1.429267   -1.702134
H     -0.469577   -2.021703    1.132197
H     -0.991488   -0.520577    1.899975
H     -2.805024   -0.265574    0.415906
H     -2.210700   -1.644817   -0.684631
H     -2.717350   -1.956209    1.002049
H      4.060356    1.300402    1.597509
H      3.761056   -0.478014    1.857559
