32

Cl    -0.404380    4.142520    1.733279
C     -1.017419    2.636486    1.098596
C     -2.364600    2.449913    0.772286
C     -2.849049    1.261945    0.268711
C     -1.935689    0.252105    0.096384
N     -2.553210   -0.958991   -0.319321
C     -3.663685   -1.009347   -1.041921
N     -3.909241   -2.328073   -1.193389
N     -2.949194   -3.042520   -0.563623
C     -2.087697   -2.193612   -0.007831
C     -0.898337   -2.605709    0.784998
N      0.299843   -1.846173    0.431652
C      0.478487   -0.581731    0.211879
C      1.793371   -0.124988   -0.130867
C      2.808957   -1.093936   -0.012986
C      4.083412   -0.813422   -0.427985
C      4.422558    0.405335   -0.968842
C      3.428536    1.341232   -1.081264
C      2.129197    1.084751   -0.670863
C     -0.575159    0.400779    0.405779
C     -0.135291    1.595092    0.909152
H     -2.999108    3.315911    0.947274
H     -3.885589    1.145189    0.028589
H     -4.245174   -0.186363   -1.423663
H     -0.725395   -3.685794    0.693223
H     -1.112877   -2.375918    1.843363
H      2.608038   -2.067895    0.402233
H      4.870954   -1.546103   -0.343572
H      5.453318    0.595355   -1.289284
H      3.648233    2.319034   -1.502604
H      1.368682    1.861252   -0.854091
H      0.917507    1.653676    1.204708
