18

C     -0.949389    0.097193    1.931475
C     -0.159327    0.628426    0.772520
C     -0.022161   -0.371303   -0.354342
O     -1.301689   -0.686648   -0.793118
C      0.800324    0.258823   -1.409456
C      0.443541    1.383097   -2.001127
Cl     1.384942    2.165995   -3.255087
C      0.630100   -1.569872    0.159410
C      1.192603   -2.559675    0.591432
H     -0.720619    0.744663    2.812705
H     -2.023669    0.203681    1.690937
H     -0.657005   -0.969270    2.123173
H      0.871533    0.909396    1.079199
H     -0.694547    1.509665    0.365232
H     -1.714215    0.047226   -1.293067
H      1.720613   -0.210584   -1.708248
H     -0.499386    1.834316   -1.672731
H      1.698352   -3.415129    0.961094
