22

C      1.893596    1.578133    0.665704
C      0.653811    1.124778    0.265105
C      0.511880    0.089510   -0.651703
C     -0.815709   -0.406188   -1.091454
C     -1.302329   -1.522231   -0.169797
N     -1.432458   -1.069992    1.193682
C     -2.507868   -0.127188    1.297809
N      1.654632   -0.443006   -1.124965
C      2.876223   -0.019654   -0.752299
C      3.044256    1.005675    0.156278
H      2.027164    2.376565    1.376805
H     -0.243813    1.570741    0.663692
H     -0.715159   -0.883720   -2.110539
H     -1.578713    0.360800   -1.197109
H     -0.568359   -2.353294   -0.265167
H     -2.290425   -1.896387   -0.503481
H     -0.504244   -0.685591    1.471471
H     -2.910372    0.226538    0.325865
H     -2.195123    0.769368    1.862014
H     -3.399979   -0.559338    1.838381
H      3.766275   -0.492838   -1.172509
H      4.036714    1.357318    0.466288
