25

C      3.322215    1.162626    0.282927
C      1.965290    1.079285    0.508966
C      1.316386   -0.128986    0.426445
C     -0.128421   -0.178426    0.681019
C     -0.884263    0.036964   -0.639592
N     -2.259426   -0.043967   -0.302168
C     -2.767998   -1.302444    0.092222
C     -3.138809    0.948752   -0.761920
N      1.987123   -1.273651    0.120714
C      3.306233   -1.193513   -0.098912
C      4.000042    0.003565   -0.025477
H      3.818134    2.129167    0.349488
H      1.385151    1.990467    0.756638
H     -0.497172   -1.110673    1.096203
H     -0.438944    0.645474    1.345956
H     -0.673877    1.079122   -0.983844
H     -0.515035   -0.641341   -1.413117
H     -3.851088   -1.429513   -0.091619
H     -2.577179   -1.415710    1.194529
H     -2.176422   -2.121536   -0.404836
H     -3.259306    1.701458    0.069119
H     -2.734698    1.531879   -1.636530
H     -4.163746    0.582341   -1.007018
H      3.889650   -2.094543   -0.349670
H      5.076159    0.043204   -0.208582
