16

S      2.063664   -1.396689   -0.280047
C      0.676656   -0.414959   -0.178361
N      1.196030    0.798298   -0.086272
C      2.480762    0.951866   -0.092943
C      3.260573   -0.169927   -0.197035
C     -0.762769   -0.798986   -0.188282
C     -1.631646    0.433795   -0.074025
N     -3.029946    0.125278   -0.078126
H      2.951147    1.955392   -0.017378
H      4.359956   -0.208976   -0.216758
H     -0.975422   -1.540092    0.585931
H     -1.020901   -1.277450   -1.167970
H     -1.443720    1.149961   -0.898837
H     -1.354652    0.944461    0.879803
H     -3.326861   -0.549402    0.637865
H     -3.442870   -0.002570   -1.007053
