44

C      5.793707    1.003970   -1.228449
N      5.375554   -0.085692   -0.581394
C      4.057594    0.071264   -0.269987
C      3.210556   -0.909782    0.451849
C      2.718795   -0.290959    1.752257
C      1.625226   -1.175737    2.321087
N      0.440799   -0.926304    1.458714
C      0.744877   -0.713167    0.070837
C      2.049253   -1.407926   -0.342365
C     -0.821670   -0.928837    2.044305
N     -2.098931   -0.728614    1.534216
C     -2.586172   -0.436122    0.227170
C     -4.135908   -0.540499    0.293522
C     -4.637302   -0.266937   -1.085689
C     -4.238783    1.040143   -1.671962
C     -2.819830    1.463578   -1.392586
C     -2.332167    1.033049   -0.046466
S     -0.781398   -1.238187    3.708374
C      3.728036    1.305204   -0.766921
N      4.794858    1.887676   -1.360394
H      6.793448    1.158675   -1.596393
H      3.845344   -1.790855    0.713578
H      3.575528   -0.225954    2.459526
H      2.287214    0.707186    1.561880
H      1.347273   -0.769889    3.311304
H      1.909327   -2.225300    2.338803
H     -0.036342   -0.958938   -0.629305
H      0.954529    0.388879   -0.051284
H      2.200923   -1.181293   -1.416091
H      1.875129   -2.493958   -0.159498
H     -2.885878   -0.805487    2.270456
H     -2.270418   -1.105921   -0.571762
H     -4.414685   -1.560090    0.573727
H     -4.490198    0.188237    1.025863
H     -4.333172   -1.085597   -1.768909
H     -5.757775   -0.288940   -1.040407
H     -4.980792    1.816268   -1.410110
H     -4.312533    0.935692   -2.794388
H     -2.103482    1.140755   -2.172803
H     -2.807401    2.581107   -1.406871
H     -1.267192    1.232053    0.037245
H     -2.830322    1.581638    0.786169
H      2.770518    1.788091   -0.717675
H      4.843866    2.817521   -1.822179
