39

C     -1.198502   -3.648113    0.457707
C     -2.533591   -3.418372    0.242137
C     -2.939512   -2.164105   -0.088778
C     -2.022316   -1.138073   -0.206222
O     -2.607842    0.095695   -0.550888
C     -2.108294    1.350508   -0.149295
C     -0.787604    1.709012   -0.089196
C     -0.504003    2.988271    0.332102
C     -1.534801    3.875257    0.681032
C     -2.840936    3.481173    0.607581
C     -3.136291    2.214398    0.191295
Cl    -1.181741    5.501840    1.217157
C      0.385510    0.946852   -0.425441
C      0.501336   -0.468273   -0.054784
C     -0.663032   -1.316517   -0.000396
C     -0.283354   -2.610199    0.337160
C      1.470660   -1.064001   -1.090983
N      2.740679   -0.457329   -0.860311
C      2.804893    0.562991    0.116172
C      1.691327    1.583227    0.104084
C      3.653729   -1.526263   -0.444713
H     -0.855704   -4.635262    0.721379
H     -3.283686   -4.200042    0.325074
H     -3.994307   -1.968581   -0.262006
H      0.475567    3.393569    0.422452
H     -3.648661    4.145705    0.870405
H     -4.161389    1.891896    0.128034
H      0.537521    1.037947   -1.556190
H      1.039381   -0.568818    0.926862
H      0.751197   -2.861725    0.532700
H      1.105639   -0.642229   -2.078526
H      1.431597   -2.138056   -1.170421
H      3.761566    1.134395   -0.051275
H      2.951635    0.101457    1.132998
H      1.995298    2.440276   -0.521833
H      1.528131    1.845031    1.179546
H      3.138939   -2.034128    0.416456
H      4.623833   -1.153624   -0.118842
H      3.697130   -2.285786   -1.247819
