68

C     -3.284895    3.708707   -2.274524
C     -2.779269    2.760387   -1.404293
C     -1.490287    2.853810   -0.923601
C     -0.960156    1.949505   -0.039842
C     -1.666312    0.744277    0.340546
N     -2.431776   -0.102948   -0.487502
C     -3.110388   -1.294673    0.057153
C     -4.584601   -1.045079   -0.176096
C     -4.792811   -0.894527   -1.661711
C     -2.677661   -2.514238   -0.657446
C     -1.358354   -2.778037   -0.949856
C     -0.948774   -3.918809   -1.618782
C     -1.905535   -4.834529   -2.011143
C     -3.236102   -4.602757   -1.734951
C     -3.615328   -3.437041   -1.055853
O     -1.555250    0.435778    1.584722
C      0.352120    2.153928    0.419131
C      1.141884    3.208013    0.031300
N      0.590490    4.071995   -0.839474
C     -0.662367    3.914828   -1.302466
C     -1.187538    4.854813   -2.174849
C     -2.473067    4.752700   -2.651160
C      2.505557    3.382654    0.535665
C      2.867424    3.244590    1.855637
C      4.168876    3.419002    2.287801
C      5.152588    3.742381    1.382510
C      4.815715    3.886269    0.054983
C      3.499344    3.706151   -0.358301
O      0.900269    1.244586    1.320290
C      1.595116    0.144737    0.762261
C      2.142648   -0.771336    1.829373
C      2.872606   -1.925477    1.208527
N      3.413955   -2.830044    2.207785
C      4.110033   -3.926800    1.561936
C      2.328120   -3.425377    2.974702
H     -4.290321    3.640405   -2.654486
H     -3.438218    1.966738   -1.082872
H     -2.477776    0.102740   -1.506502
H     -2.875205   -1.330792    1.130179
H     -5.247229   -1.763478    0.313322
H     -4.844409   -0.051022    0.281946
H     -3.933964   -1.309925   -2.256223
H     -4.846895    0.174739   -1.950523
H     -5.754210   -1.379154   -1.923879
H     -0.622579   -2.057449   -0.639118
H      0.102688   -4.107528   -1.840080
H     -1.589940   -5.742445   -2.542324
H     -3.988894   -5.313650   -2.038426
H     -4.650936   -3.298317   -0.864011
H     -0.540732    5.687519   -2.474609
H     -2.863458    5.494757   -3.330446
H      2.105762    2.992088    2.570004
H      4.458339    3.311653    3.324074
H      6.178162    3.878080    1.734261
H      5.612590    4.141067   -0.632615
H      3.275758    3.828347   -1.411340
H      2.495018    0.500076    0.178331
H      0.977138   -0.395914    0.016197
H      1.315292   -1.074163    2.469803
H      2.878571   -0.192047    2.425733
H      3.696073   -1.541622    0.573752
H      2.219687   -2.532180    0.542002
H      4.783736   -4.450520    2.268310
H      3.398202   -4.698667    1.174163
H      4.647623   -3.528238    0.679617
H      1.798328   -2.701094    3.601347
H      1.565321   -3.825112    2.247068
H      2.720204   -4.302334    3.524875
