50

C      5.197008    1.737381   -0.416436
C      4.329589    0.754706    0.341569
C      2.907776    1.237336    0.482805
N      1.894254    0.248708    0.319600
C      2.175290   -1.177017    0.327424
C      3.641841   -1.438453    0.587523
C      3.960901   -2.875705    0.255982
N      4.405629   -0.556902   -0.266789
C      0.506911    0.637587    0.159108
C      0.196161    1.991289    0.232997
F      1.096902    2.973975    0.476783
C     -1.143873    2.359911    0.054647
N     -1.471990    3.757879    0.129168
C     -2.112710    1.419740   -0.183377
C     -3.428982    1.821833   -0.357945
O     -3.705795    3.051822   -0.290362
C     -4.440946    0.919930   -0.602422
C     -4.073069   -0.408019   -0.664067
N     -2.790152   -0.804941   -0.493992
C     -2.462867   -2.215319   -0.562133
C     -3.534376   -3.203574   -0.114595
C     -2.316765   -2.975354    0.701387
C     -1.782259    0.075778   -0.252714
C     -0.468938   -0.301192   -0.080042
F     -0.186213   -1.604293   -0.168836
C     -5.827211    1.332729   -0.787495
O     -6.145455    2.678937   -0.716231
O     -6.730786    0.489752   -1.009209
H      4.967593    1.735712   -1.503489
H      4.877201    2.759149   -0.059181
H      6.257748    1.614630   -0.182548
H      4.756302    0.668225    1.362907
H      2.783440    1.947331   -0.395899
H      2.757020    1.820571    1.404362
H      1.570936   -1.680963    1.123326
H      1.981765   -1.560719   -0.692731
H      3.924714   -1.184373    1.637129
H      4.323003   -2.991771   -0.784496
H      3.107406   -3.551154    0.459016
H      4.803764   -3.227221    0.915073
H      5.419573   -0.826534   -0.261049
H     -2.016072    4.111256    0.933725
H     -1.137064    4.362513   -0.651069
H     -4.826215   -1.180626   -0.860156
H     -1.947630   -2.543961   -1.493596
H     -3.584524   -4.192578   -0.616017
H     -4.519613   -2.846149    0.205021
H     -2.485364   -2.374267    1.637711
H     -1.610227   -3.793086    0.836682
H     -7.093635    3.005490   -0.502029
