56

O      7.831271    0.542535    0.720430
C      6.427792    0.484606    0.872176
C      5.860281   -0.442813   -0.168332
N      4.449177   -0.589581   -0.149186
C      3.831677   -1.205975    0.930814
C      2.311748   -1.163995    0.802187
N      1.862266    0.129613    0.643153
C      0.426275    0.372824    0.505110
C     -0.048458   -0.285174   -0.793856
C     -1.380860    0.080978   -1.304289
N     -2.584335   -0.238836   -0.577396
C     -2.950433   -1.618240   -0.528894
C     -2.195975   -2.511929   -1.289899
C     -2.584474   -3.865086   -1.404129
C     -3.696726   -4.339100   -0.776164
C     -4.429834   -3.461360   -0.030457
C     -4.046641   -2.152637    0.069507
S     -5.044422   -1.095216    1.123036
C     -4.555997    0.553422    0.660596
C     -5.388650    1.549896    1.069161
C     -5.020408    2.860475    0.819417
C     -3.873836    3.189069    0.189603
C     -3.042954    2.130946   -0.212106
C     -3.381293    0.786837    0.012730
C     -3.466971    4.577414   -0.126699
F     -3.078344    4.642991   -1.456378
F     -4.670889    5.346058   -0.048160
F     -2.561590    5.093799    0.714961
C      2.609326    0.976182   -0.287061
C      3.668788    0.224602   -1.007970
H      8.103568    0.169185   -0.168375
H      5.990570    1.481933    0.905397
H      6.156659   -0.007249    1.878184
H      6.390860   -1.416026   -0.091237
H      6.129862    0.039325   -1.154779
H      4.147649   -2.256859    1.079715
H      4.026811   -0.702648    1.930942
H      2.085132   -1.887461   -0.032985
H      1.905737   -1.594906    1.769026
H     -0.122254   -0.019157    1.363436
H      0.283123    1.453604    0.435235
H      0.764467   -0.253928   -1.513210
H     -0.056449   -1.408224   -0.415236
H     -1.284201    1.166026   -1.617906
H     -1.444481   -0.447141   -2.361062
H     -1.302808   -2.289610   -1.839623
H     -1.995130   -4.571711   -1.993616
H     -4.041007   -5.374386   -0.828669
H     -5.335962   -3.770151    0.514225
H     -6.328378    1.347221    1.544704
H     -5.691757    3.643953    1.154039
H     -2.133709    2.390529   -0.715576
H      1.846038    1.314713   -1.061999
H      3.009231    1.860137    0.199880
H      4.348189    0.967322   -1.468881
H      3.272726   -0.406793   -1.849071
