50

C     -4.878418   -0.701694   -2.399096
C     -3.678571   -1.059373   -1.586212
N     -3.360619   -0.012727   -0.585201
C     -4.361540   -0.012895    0.401988
C     -4.480299    1.239835    1.234200
C     -2.027036   -0.304903   -0.191868
C     -1.611766    0.350094    1.130523
N     -0.264314    0.092704    1.440619
C      0.118712   -1.088841    2.183272
O     -0.810333   -1.823784    2.494140
C      1.477845   -1.525042    2.615099
N      2.414060   -1.495668    1.488490
C      2.645931   -0.548460    0.599862
C      3.625848   -0.759920   -0.436610
C      4.465804   -1.882923   -0.383894
C      5.323568   -2.262384   -1.378336
C      5.380805   -1.498188   -2.519710
C      4.572016   -0.392783   -2.604029
C      3.711144   -0.032279   -1.588908
F      2.887701    1.014964   -1.908315
C      2.036544    0.770170    0.696696
C      2.950811    1.790790    0.409692
C      2.527929    3.093836    0.427413
Cl     3.655471    4.399056    0.056406
C      1.193778    3.350253    0.734474
C      0.281539    2.337045    1.024684
C      0.719252    1.061133    1.003057
H     -4.765391    0.374911   -2.715883
H     -5.837934   -0.856002   -1.867805
H     -4.876510   -1.356739   -3.309465
H     -3.949310   -1.950566   -0.951164
H     -2.788359   -1.339771   -2.146643
H     -5.400024   -0.230865    0.003120
H     -4.185181   -0.904713    1.088619
H     -4.078935    1.081368    2.229547
H     -5.575688    1.510845    1.398643
H     -4.063225    2.138238    0.735311
H     -1.356075    0.032140   -1.014434
H     -1.955064   -1.428586   -0.074093
H     -1.889377    1.372415    1.026640
H     -2.292566   -0.222681    1.850443
H      1.403450   -2.565321    2.933230
H      1.866488   -0.925059    3.460461
H      4.436671   -2.513664    0.522619
H      5.959866   -3.169719   -1.272110
H      6.062362   -1.784948   -3.333243
H      4.636425    0.202869   -3.531282
H      3.982432    1.527472    0.218671
H      0.860670    4.356739    0.742161
H     -0.710589    2.553624    1.263254
