24

C     -3.450107   -0.510075   -0.287545
C     -2.336209    0.455264   -0.050839
N     -2.600919    1.739695    0.156768
C     -1.651261    2.672401    0.377691
C     -0.346408    2.218837    0.378817
C     -0.031996    0.902936    0.168776
C     -1.038986   -0.009711   -0.052173
N     -0.507911   -1.243797   -0.234648
C      0.817551   -1.124209   -0.132361
C      1.806672   -2.080085   -0.238203
C      3.120281   -1.680692   -0.087882
C      3.466424   -0.365132    0.162692
C      2.472322    0.583226    0.266919
C      1.170535    0.186808    0.117844
H     -4.345868   -0.231758    0.323575
H     -3.708036   -0.447294   -1.359367
H     -3.085921   -1.530401   -0.070637
H     -1.854573    3.713218    0.546613
H      0.460101    2.911636    0.549122
H     -1.058096   -2.090570   -0.416043
H      1.539255   -3.107440   -0.433707
H      3.922011   -2.430238   -0.169277
H      4.504880   -0.140637    0.265608
H      2.736257    1.608017    0.461763
