50

C     -0.097882   -0.607667    2.818448
N      0.307869   -0.047876    1.556172
C     -0.593740    0.770686    0.809827
C     -0.844589    2.041309    1.640542
C     -1.342489    3.085814    0.699059
C     -2.023216    2.435446   -0.463880
C     -2.806773    1.197899   -0.095711
C     -1.946255    0.167728    0.606723
N     -1.988287   -1.101424   -0.018348
C     -1.501045   -1.183557   -1.344943
C     -2.652177   -1.498563   -2.267341
C     -3.820439   -1.748800   -1.375925
C     -3.342945   -1.593567    0.025831
C      1.599454   -0.314260    1.062489
O      2.396650   -1.033264    1.713637
C      2.048102    0.236371   -0.217415
C      3.425564   -0.143934   -0.574951
C      4.506422    0.615400   -0.207574
C      5.793528    0.205770   -0.575146
C      5.988408   -0.939993   -1.294994
Cl     7.587485   -1.490080   -1.777160
C      4.901366   -1.706908   -1.666515
Cl     5.080758   -3.181203   -2.587067
C      3.631142   -1.292559   -1.297493
H     -0.634859    0.131779    3.450004
H     -0.711906   -1.529589    2.657944
H      0.775580   -0.944376    3.437775
H     -0.115119    1.111290   -0.135475
H      0.043489    2.321944    2.219430
H     -1.659708    1.837292    2.374447
H     -1.974966    3.850807    1.205220
H     -0.437558    3.644855    0.324358
H     -2.784523    3.151897   -0.892145
H     -1.322214    2.253886   -1.314003
H     -3.674393    1.518399    0.507839
H     -3.221251    0.793309   -1.041732
H     -2.395391    0.044552    1.635770
H     -0.800495   -2.067422   -1.402718
H     -0.936951   -0.321358   -1.709069
H     -2.474785   -2.424367   -2.872045
H     -2.834424   -0.675580   -2.999730
H     -4.246732   -2.774772   -1.486160
H     -4.667267   -1.053752   -1.624458
H     -3.400883   -2.510648    0.635982
H     -4.033224   -0.858863    0.536570
H      1.984439    1.340835   -0.278055
H      1.349095   -0.141696   -1.010508
H      4.416854    1.535462    0.363772
H      6.643799    0.819157   -0.276905
H      2.806482   -1.925809   -1.610633
