28

N      0.683388   -3.136718    1.344646
C      1.056209   -1.866915    0.829214
O      2.237094   -1.659123    0.545571
O      0.121573   -0.901112    0.654616
C      0.304189    0.400295    0.151414
C     -1.030481    1.100241    0.177066
C     -1.864256    0.860994   -1.049627
C     -1.422757   -0.422070   -1.765410
C     -0.053327   -0.080853   -2.300522
C      0.897950    0.307984   -1.221377
C      1.236069    1.219429    1.018891
C      0.675377    1.332916    2.393029
C      0.202377    1.409591    3.530110
H      1.181714   -4.008648    1.089793
H     -0.122441   -3.264085    2.016184
H     -0.946767    2.192888    0.317515
H     -1.612103    0.713973    1.036867
H     -1.684004    1.669822   -1.782324
H     -2.951342    0.851427   -0.826324
H     -1.430465   -1.261005   -1.055089
H     -2.130720   -0.582594   -2.598872
H      0.281800   -0.980211   -2.881732
H     -0.177233    0.724060   -3.053773
H      1.333226    1.315693   -1.505754
H      1.756141   -0.381879   -1.291240
H      2.222916    0.738161    1.159490
H      1.422021    2.217662    0.584502
H     -0.186148    1.490077    4.483134
