63

Cl   -10.326080   -2.212213   -1.056061
C     -9.070059   -1.029168   -1.409122
C     -9.392920   -0.038988   -2.332892
C     -8.422573    0.894109   -2.617525
C     -7.179951    0.843682   -2.006891
C     -6.849066   -0.128261   -1.093463
O     -5.645537   -0.213214   -0.472446
C     -4.522249    0.574551   -0.567366
C     -4.132177    1.279668    0.700971
C     -3.018560    0.646455    1.449612
N     -1.790470    0.512309    0.662035
C     -0.783119    1.427165    1.133087
C      0.573446    1.298425    0.592662
C      1.307445    0.027984    0.881341
C      0.675250   -1.221401    0.381370
C      1.850784   -2.121777    0.005174
C      2.809557   -1.053873   -0.549001
N      2.651625    0.067905    0.324159
S      3.774420   -0.015667    1.631074
C      5.419851    0.028241    1.061027
C      6.126603   -1.102090    0.722771
C      7.444624   -1.018655    0.266075
N      8.349933   -1.930475   -0.126228
C      9.505700   -1.347297   -0.487186
C      9.354655    0.006864   -0.325310
C      8.076009    0.205009    0.141463
C      7.358179    1.330564    0.483378
C      6.060311    1.251767    0.933238
O      3.477648    1.159011    2.542826
O      3.502256   -1.250320    2.446706
C     -2.114354    0.767798   -0.744912
C     -3.274801   -0.142431   -1.073406
C     -7.827722   -1.063641   -0.811062
H    -10.379312   -0.016168   -2.804546
H     -8.648559    1.680608   -3.336366
H     -6.470672    1.613572   -2.285465
H     -4.711043    1.381581   -1.322149
H     -5.021000    1.291043    1.399141
H     -3.884703    2.346003    0.531821
H     -3.322293   -0.351749    1.773199
H     -2.767744    1.271817    2.325900
H     -0.734069    1.308444    2.242739
H     -1.210274    2.451140    0.991238
H      0.670256    1.475316   -0.499589
H      1.195379    2.124274    1.051064
H      1.358840   -0.059225    1.997489
H     -0.008490   -1.708339    1.105855
H      0.124745   -1.043016   -0.545583
H      1.580468   -2.837133   -0.770037
H      2.241331   -2.564944    0.939171
H      2.450454   -0.851871   -1.588987
H      3.839966   -1.431784   -0.612991
H      5.672122   -2.070349    0.806202
H      8.165252   -2.956556   -0.143945
H     10.410248   -1.836752   -0.845188
H     10.054910    0.799947   -0.508909
H      7.836240    2.302640    0.393390
H      5.532834    2.158635    1.190964
H     -1.296331    0.552849   -1.420738
H     -2.506247    1.822196   -0.867894
H     -3.109546   -1.097294   -0.524834
H     -3.385664   -0.323108   -2.161484
H     -7.645755   -1.863814   -0.100879
