63

H      0.000000    0.000000    0.000000
H      0.000000    0.000000    0.000000
Cl     0.000000    0.000000    0.000000
Cl     0.000000    0.000000    0.000000
O     -5.365670    2.152300   -0.784457
C     -5.744023    1.504371    0.359952
C     -5.680846    0.014661    0.273216
N     -4.355498   -0.512759   -0.010447
C     -4.435862   -1.932787    0.146938
C     -3.515399   -2.611064   -0.807505
C     -2.098995   -2.640794   -0.397662
N     -1.512070   -1.412341    0.068621
C     -0.789843   -0.737208   -0.913957
C      0.072844    0.411836   -0.480412
C      1.104823    0.003552    0.586396
N      2.385969    0.715899    0.315622
C      2.358883    2.080324    0.019924
C      1.238599    2.875509    0.345392
C      1.227070    4.241535    0.127240
C      2.310020    4.850072   -0.406477
C      3.399743    4.089949   -0.719344
C      3.431012    2.764688   -0.517325
S      4.905945    1.902972   -0.998605
C      4.736632    0.245581   -0.365296
C      5.831087   -0.556044   -0.415821
C      5.760668   -1.836319    0.054816
C      4.566316   -2.299016    0.574166
C      3.465199   -1.446120    0.609662
C      3.533929   -0.143777    0.133406
C      6.943258   -2.752471    0.031839
F      6.567332   -3.908309   -0.594219
F      7.428811   -2.968065    1.304705
F      7.965313   -2.177413   -0.698107
C     -2.155477   -0.752555    1.104203
C     -3.366076    0.060024    0.825931
H     -5.797145    3.061755   -0.790516
H     -5.142975    1.912717    1.205947
H     -6.796177    1.780887    0.608192
H     -6.289866   -0.256568   -0.651746
H     -6.183789   -0.517302    1.092711
H     -5.465008   -2.282175   -0.065991
H     -4.254066   -2.247527    1.209793
H     -3.709198   -2.240040   -1.829598
H     -3.857847   -3.698665   -0.837553
H     -1.501966   -2.898887   -1.332687
H     -1.868958   -3.435307    0.309535
H     -1.463465   -0.279135   -1.717131
H     -0.159807   -1.435230   -1.502575
H      0.593268    0.847858   -1.319102
H     -0.687476    1.133325   -0.074127
H      0.847156    0.305797    1.594578
H      1.194078   -1.082090    0.407231
H      0.400816    2.433168    0.853820
H      0.344290    4.781807    0.393296
H      2.294931    5.944606   -0.593850
H      4.286692    4.604472   -1.160154
H      6.780513   -0.210368   -0.827413
H      4.428866   -3.292006    0.963181
H      2.597330   -1.884555    1.071195
H     -1.442578   -0.057859    1.638071
H     -2.379755   -1.514154    1.915500
H     -3.861857    0.223660    1.833765
H     -3.119701    1.075586    0.445223
