53

O      7.110864    0.680773   -2.377316
C      6.891656   -0.398237   -1.534103
C      5.385753   -0.576811   -1.261683
O      4.924798    0.583645   -0.665943
C      3.574382    0.568446   -0.374091
C      3.165665   -0.530320    0.574244
N      1.792540   -0.477008    0.845493
C      1.280014    0.569916    1.615195
C     -0.168616    0.872029    1.372884
N     -0.991802   -0.236723    1.036971
C     -0.411400   -1.521991    1.025128
C      0.970146   -1.532367    0.422654
C     -1.871127    0.114149   -0.022432
C     -2.771268   -0.923063   -0.513234
C     -2.921219   -1.125271   -1.887309
C     -3.748272   -2.060864   -2.424151
C     -4.492227   -2.869734   -1.597120
C     -4.376218   -2.706060   -0.226359
C     -3.527441   -1.746698    0.292439
C     -2.616988    1.351509    0.399781
C     -2.846888    2.413912   -0.448636
C     -3.548661    3.543245   -0.009307
C     -4.014752    3.595764    1.282952
Cl    -4.891293    5.009244    1.824696
C     -3.796630    2.552343    2.139338
C     -3.110147    1.465012    1.683954
H      7.866928    1.203544   -1.958064
H      7.327507   -0.209335   -0.509861
H      7.298250   -1.349696   -1.873737
H      4.842671   -0.869459   -2.182098
H      5.268264   -1.427026   -0.542920
H      3.256546    1.562564    0.004315
H      3.018538    0.448810   -1.356571
H      3.375550   -1.505101    0.025322
H      3.820035   -0.529691    1.474182
H      1.428923    0.448888    2.719920
H      1.839565    1.525165    1.386696
H     -0.227216    1.698372    0.610416
H     -0.603905    1.341229    2.299900
H     -1.051142   -2.192674    0.417544
H     -0.384933   -1.928118    2.069664
H      1.439960   -2.527601    0.638333
H      0.829183   -1.474763   -0.686750
H     -1.223337    0.467899   -0.873973
H     -2.331375   -0.483090   -2.529408
H     -3.827849   -2.176143   -3.503569
H     -5.162391   -3.624992   -2.023028
H     -4.975704   -3.358977    0.415988
H     -3.470724   -1.658047    1.357707
H     -2.480849    2.357817   -1.448670
H     -3.737828    4.379512   -0.652258
H     -4.178607    2.614988    3.168367
H     -2.946932    0.651089    2.378507
