32

C     -0.667901    2.356187   -1.714380
N     -0.398906    1.875251   -0.431665
C     -0.265937    0.536464   -0.102404
C     -0.935212    0.237034    1.219077
C     -2.401403   -0.024995    0.924732
C     -2.588353   -1.409798    0.384030
C     -1.367748   -1.724554   -0.479037
C     -0.927565   -0.426480   -1.054263
O     -1.126809   -0.222522   -2.216212
C      1.151990    0.059677    0.051737
C      1.624503   -1.023272   -0.672248
C      2.925149   -1.460688   -0.419249
C      3.753992   -0.853855    0.514804
C      3.273023    0.218655    1.221936
C      1.979616    0.649238    0.970873
Cl     1.389868    2.058954    1.869225
H     -1.585938    1.992555   -2.211799
H     -0.920461    3.475879   -1.576137
H      0.214283    2.414558   -2.387621
H     -0.691688    2.516404    0.353008
H     -0.850960    1.084782    1.914604
H     -0.467826   -0.662033    1.680153
H     -2.723182    0.695327    0.153753
H     -3.036839    0.168902    1.817285
H     -3.491666   -1.510579   -0.244053
H     -2.602314   -2.126345    1.234727
H     -1.624147   -2.473527   -1.255392
H     -0.563296   -2.107168    0.176518
H      1.004645   -1.480501   -1.409120
H      3.306404   -2.308981   -0.960238
H      4.754457   -1.231310    0.683648
H      3.860221    0.706741    1.963711
