54

C     -5.868542   -1.113080    0.993648
C     -4.660319   -0.188350    0.800818
N     -4.698370    0.261440   -0.555579
C     -5.843259    1.062263   -0.837868
C     -6.860559    1.087187    0.262699
C     -7.088809   -0.222014    0.936345
C     -3.466039    0.739850   -1.088178
C     -2.435094   -0.320381   -1.091240
C     -2.784631   -1.647437   -0.992683
C     -1.805641   -2.636076   -0.992423
C     -0.474010   -2.345607   -1.087969
C     -0.089555   -0.992838   -1.189963
C     -1.076081   -0.046345   -1.187790
O      1.251794   -0.760254   -1.284347
C      2.012984    0.369789   -1.379998
C      1.962993    1.334434   -0.229819
C      2.413397    0.685415    1.062534
N      3.762164    0.181637    1.018016
C      4.846229    1.045770    0.789296
O      4.692565    2.302865    0.613783
C      6.214429    0.568745    0.736071
C      6.521028   -0.675901    1.206908
C      7.828936   -1.126976    1.146136
C      8.831254   -0.358621    0.625284
C      8.503818    0.887097    0.158245
C      7.222690    1.365032    0.202293
H     -5.784052   -1.679421    1.932383
H     -5.954105   -1.819885    0.149551
H     -4.828073    0.668520    1.508331
H     -3.714532   -0.660079    1.062642
H     -6.344781    0.676438   -1.752034
H     -5.559819    2.136640   -1.032902
H     -7.835714    1.400437   -0.214412
H     -6.649119    1.872655    1.019414
H     -7.980643   -0.762350    0.510773
H     -7.378626   -0.039535    2.013113
H     -3.103008    1.652525   -0.566365
H     -3.643043    1.017291   -2.148246
H     -3.816461   -1.985084   -0.915327
H     -2.105053   -3.670844   -0.914101
H      0.292152   -3.126858   -1.087348
H     -0.812832    0.995360   -1.278298
H      3.077472    0.045711   -1.573272
H      1.750555    0.901878   -2.348376
H      1.000930    1.822527   -0.150112
H      2.703798    2.150802   -0.492689
H      1.673930   -0.141863    1.259686
H      2.259682    1.394292    1.910940
H      3.912521   -0.837062    1.155619
H      5.756538   -1.329305    1.637486
H      8.064535   -2.114470    1.520986
H      9.850528   -0.755964    0.597437
H      9.288611    1.526364   -0.265493
H      6.965234    2.364894   -0.173606
