60

C      6.183719   -1.794073   -1.275844
C      5.086275   -1.774941   -0.410083
O      5.349221   -0.924746    0.527560
C      6.510676   -0.374171    0.376311
C      7.078363   -0.901374   -0.764726
C      7.070595    0.636094    1.303188
N      8.318427    1.174444    0.898757
C      8.342135    1.852055   -0.352454
C      9.463381    0.381345    1.195821
C      3.843441   -2.570576   -0.522514
S      2.657124   -1.653575   -1.525574
C      2.115621   -0.121220   -0.735448
C      1.336255   -0.344737    0.507193
N      0.147140   -1.098251    0.423638
C     -1.085491   -0.775382   -0.182476
N     -2.128512   -1.640841   -0.171849
C     -3.304881   -1.349886   -0.721909
C     -3.525977   -0.137742   -1.338571
C     -2.474447    0.755535   -1.358768
N     -1.306827    0.404870   -0.784961
C     -4.823183    0.228203   -1.949797
C     -5.854454    0.630905   -0.960178
C     -6.780723   -0.305037   -0.567401
C     -7.769012    0.010964    0.369132
C     -7.836173    1.272970    0.920699
C     -6.887505    2.179009    0.497277
C     -5.908072    1.890879   -0.420859
C     -8.817783    1.594189    1.855292
C     -9.745792    0.658460    2.251187
C     -9.699069   -0.614306    1.712263
C     -8.703256   -0.908081    0.776756
O     -4.277759   -2.181577   -0.701567
H      6.251262   -2.422924   -2.170325
H      8.037071   -0.653492   -1.166306
H      7.221577    0.112628    2.270942
H      6.303009    1.425065    1.447851
H      9.156331    1.463069   -1.018486
H      8.650418    2.920342   -0.150544
H      7.367180    1.917388   -0.853144
H      9.870221   -0.194424    0.353037
H      9.208378   -0.314918    2.034523
H     10.272654    1.058049    1.582077
H      4.112829   -3.535208   -1.003682
H      3.447265   -2.817112    0.485072
H      1.624695    0.565127   -1.407766
H      3.080917    0.404020   -0.436597
H      2.010209   -0.754171    1.312400
H      1.067371    0.689346    0.894717
H      0.164300   -2.068091    0.886640
H     -2.605083    1.725590   -1.836856
H     -0.519440    1.122932   -0.806057
H     -4.650580    1.088118   -2.624318
H     -5.205686   -0.612695   -2.561181
H     -6.834468   -1.324952   -0.934017
H     -6.955684    3.179845    0.946149
H     -5.174250    2.617882   -0.738787
H     -8.848723    2.598313    2.275702
H    -10.533496    0.858654    2.978568
H    -10.428152   -1.347174    2.023935
H     -8.663586   -1.900615    0.353929
