33

C     -4.800233    0.974559    0.573603
N     -4.346854    0.164317   -0.543621
C     -4.823071   -1.201081   -0.433482
C     -2.903593    0.224697   -0.673165
C     -2.187764   -0.442974    0.446729
O     -0.800809   -0.345010    0.259042
C     -0.103232   -0.864653   -0.796185
O     -0.716233   -1.490673   -1.691292
C      1.384496   -0.718026   -0.934811
O      1.873055    0.005092    0.153681
C      3.236776    0.271112    0.251445
C      3.729638    0.985728    1.322149
C      5.064218    1.291113    1.493553
C      5.945817    0.845726    0.523655
Cl     7.653067    1.229588    0.731460
C      5.478779    0.127523   -0.559651
C      4.135688   -0.155376   -0.691234
H     -5.779647    1.454863    0.335849
H     -4.834003    0.425514    1.513042
H     -4.059811    1.790625    0.703399
H     -5.805881   -1.241714   -0.947594
H     -4.139195   -1.867783   -0.957264
H     -4.877493   -1.542221    0.623423
H     -2.584793   -0.160423   -1.643252
H     -2.642900    1.309158   -0.624977
H     -2.453285   -1.514569    0.555822
H     -2.406687    0.043537    1.426800
H      1.829480   -1.721574   -1.062403
H      1.538586   -0.143495   -1.892298
H      3.007588    1.318443    2.063030
H      5.417077    1.858581    2.353084
H      6.200170   -0.196665   -1.285474
H      3.771048   -0.713940   -1.532965
