34

C     -3.629864   -0.120704    1.053814
N     -2.438622   -0.568224    0.396559
C     -2.180770   -1.978748    0.451505
C     -1.081465   -2.483231   -0.415355
N      0.215975   -1.894925   -0.165453
C      0.583854   -0.642352   -0.144053
C      1.946729   -0.281151    0.139446
C      2.884554   -1.330189    0.225917
C      4.180529   -1.136758    0.599957
C      4.665305    0.111068    0.921994
C      3.763867    1.146533    0.844629
C      2.442879    0.947389    0.464421
C     -0.356310    0.403783   -0.518561
C      0.250563    1.436537   -1.239956
C     -0.504092    2.504516   -1.628289
Cl     0.307240    3.776326   -2.524221
C     -1.852032    2.559630   -1.313662
C     -2.488840    1.569106   -0.613757
C     -1.715540    0.498791   -0.229122
H     -3.965353   -0.824815    1.858851
H     -4.513708   -0.091408    0.351975
H     -3.503072    0.851064    1.576510
H     -2.012646   -2.230066    1.515879
H     -3.118997   -2.485472    0.153738
H     -0.970562   -3.566568   -0.242606
H     -1.300946   -2.342113   -1.484859
H      2.527756   -2.340140   -0.025553
H      4.894331   -1.974244    0.659702
H      5.697196    0.262970    1.218335
H      4.125060    2.141490    1.094800
H      1.796957    1.813893    0.494002
H      1.303345    1.311400   -1.512759
H     -2.437895    3.410465   -1.625324
H     -3.515424    1.546147   -0.338506
