33

C     -2.911565   -1.115114    0.610716
C     -1.687988   -1.901481    0.867259
C     -0.371487   -1.283295    0.567036
C     -0.110744   -0.839016   -0.802026
C     -0.228727   -1.924714   -1.853375
C      1.458290   -0.584997   -0.803849
O      1.752133    0.388437    0.147761
C      3.043684    0.809522    0.364181
N      3.382569    1.809145    1.335162
O      3.955807    0.286140   -0.326875
C     -0.705219    0.404880   -1.344831
O     -0.440107    1.623087   -0.847829
C     -0.564885    2.368031    0.245954
N     -0.108373    3.726216    0.389217
O     -1.122140    1.867745    1.246059
H     -2.842520   -0.045813    0.725383
H     -3.282449   -1.425501   -0.408133
H     -3.775555   -1.430179    1.279060
H     -1.765509   -2.957535    0.456369
H     -1.669626   -2.101962    1.985691
H     -0.151110   -0.516990    1.325406
H      0.385860   -2.114974    0.868360
H      0.229176   -2.873740   -1.540086
H     -1.286325   -2.021897   -2.176249
H      0.331590   -1.587061   -2.754751
H      1.715627   -0.342002   -1.843338
H      1.859459   -1.586710   -0.559529
H      4.095248    1.576771    2.044199
H      2.941435    2.736910    1.343868
H     -1.827908    0.181614   -1.420891
H     -0.345913    0.436657   -2.445695
H      0.555464    4.035530    1.102350
H     -0.508191    4.402297   -0.301656
