23

C     -3.005096    0.082997    0.952966
C     -2.178212   -1.019394    1.016213
C     -0.960548   -1.004073    0.366755
C     -0.512975    0.087231   -0.363959
N      0.614447    0.330792   -1.069231
N      0.494379    1.556858   -1.561489
C     -0.672607    2.108578   -1.195734
C     -1.348124    1.184032   -0.420315
C     -2.572173    1.174961    0.229687
C      1.696866   -0.596995   -1.219975
C      2.746669   -0.476329   -0.156180
N      2.254126   -0.698614    1.169437
Cl    -2.675771   -2.450397    1.927222
Cl    -4.557246    0.066873    1.779287
H     -0.291511   -1.862469    0.402722
H     -1.048206    3.107152   -1.450060
H     -3.202055    2.053595    0.163894
H      2.191893   -0.385015   -2.196707
H      1.279996   -1.623834   -1.185600
H      3.512755   -1.260105   -0.361884
H      3.299302    0.495595   -0.244048
H      1.904452    0.174820    1.614940
H      3.029637   -1.046258    1.802059
