48

N     -3.616504   -0.347671    0.517085
C     -3.148209   -1.720135    0.493369
C     -1.663052   -1.718095    0.540465
C     -0.924009   -0.658869    0.996459
C      0.476046   -0.646738    1.043339
O      1.129153    0.374185    1.481198
C      1.805761    1.384902    1.915534
C      2.781887    2.055156    0.947407
C      3.821420    1.054319    0.493075
N      4.756896    1.671217   -0.423001
C      5.828279    0.897422   -0.977824
N      6.070713   -0.378537   -0.735800
C      7.077911   -0.964677   -1.304576
C      7.856991   -0.209199   -2.148167
S      7.076370    1.307769   -2.062170
C      1.108166   -1.801420    0.589414
C      0.409043   -2.869684    0.130937
C     -0.961915   -2.838926    0.102437
C     -5.065672   -0.408955    0.523508
C     -5.718350    0.917017    0.218914
C     -5.235318    1.469371   -1.114825
C     -4.147023    0.544431   -1.645711
C     -3.095384    0.431766   -0.562269
H     -3.492631   -2.282400    1.377336
H     -3.482444   -2.266673   -0.400637
H     -1.445123    0.229507    1.346123
H      1.123749    2.220986    2.290649
H      2.411332    1.138174    2.844147
H      2.247273    2.539013    0.123960
H      3.332214    2.855371    1.496711
H      3.356492    0.144599    0.057780
H      4.363982    0.710080    1.401363
H      4.640342    2.667489   -0.667213
H      7.299554   -2.042768   -1.112851
H      8.748143   -0.537588   -2.714908
H      2.195638   -1.873819    0.593684
H      0.904391   -3.789574   -0.230982
H     -1.525843   -3.675437   -0.257069
H     -5.389981   -0.698472    1.550321
H     -5.477611   -1.174408   -0.160343
H     -5.525535    1.603343    1.050882
H     -6.799483    0.732010    0.124473
H     -4.816634    2.474629   -0.904773
H     -6.046477    1.542211   -1.839993
H     -3.679458    0.975573   -2.562976
H     -4.566107   -0.446969   -1.823936
H     -2.184502   -0.031992   -0.992696
H     -2.814481    1.442469   -0.195427
