52

C     -7.186709   -0.365186   -1.500661
C     -7.213867    0.899042   -0.704822
C     -5.982939    1.745061   -0.832047
C     -4.757434    1.035676   -0.389626
O     -4.886097   -0.139165   -0.007400
N     -3.487145    1.648292   -0.393543
C     -2.259555    1.081921   -0.004831
C     -1.161409    1.910503    0.085099
C      0.088728    1.455646    0.444856
C      0.269970    0.125313    0.729941
O      1.493134   -0.395478    1.096044
C      2.594964    0.491484    1.178745
C      3.842307   -0.226872    1.579364
O      3.567508   -0.806926    2.845861
C      4.193359   -1.340683    0.640864
N      4.470571   -0.955169   -0.675100
C      5.617755   -0.251221   -1.036898
C      5.816645    1.142587   -0.516945
C      5.753960   -0.173058   -2.569395
C     -0.820383   -0.705056    0.642181
C     -2.090473   -0.238266    0.275496
C     -0.654672   -2.106087    0.934061
C     -1.815671   -3.021667    0.855609
O      0.461222   -2.600759    1.261635
H     -8.261203   -0.671041   -1.664112
H     -6.732631   -1.222833   -0.960725
H     -6.744448   -0.174027   -2.476858
H     -8.057233    1.519820   -1.132484
H     -7.499160    0.749312    0.362284
H     -6.164032    2.692576   -0.286197
H     -5.912698    2.036085   -1.920319
H     -3.522159    2.667994   -0.748408
H     -1.294618    2.955273   -0.136158
H      0.919623    2.114912    0.507444
H      2.399364    1.267018    1.974990
H      2.636449    1.033580    0.226503
H      4.678579    0.482197    1.683186
H      3.063750   -1.640523    2.627728
H      3.370455   -2.109313    0.691460
H      5.139878   -1.821494    1.075527
H      3.632479   -0.622735   -1.198850
H      6.542822   -0.827899   -0.709838
H      4.873412    1.643404   -0.309297
H      6.406210    1.726781   -1.309691
H      6.466515    1.133660    0.392497
H      5.557075   -1.160335   -3.023679
H      6.803961    0.079034   -2.765034
H      5.116712    0.639460   -2.947487
H     -2.881544   -0.961831    0.228181
H     -2.249589   -3.057071   -0.176586
H     -1.554369   -4.050809    1.193173
H     -2.587368   -2.631124    1.569064
