52

C     -2.734706   -0.405593    2.435849
N     -3.274067   -0.066685    1.132972
C     -4.453248   -0.851462    0.926526
C     -4.366985   -1.693022   -0.334971
C     -4.077868   -0.747533   -1.476775
C     -2.880518    0.129044   -1.199766
C     -2.267203   -0.304336    0.086291
C     -1.020096    0.474038    0.465222
C      0.010976    0.245530   -0.580266
N      1.263389    0.946240   -0.372896
C      1.276931    2.346427   -0.621148
C      0.098626    2.948570   -1.067429
C      0.053387    4.302555   -1.325904
C      1.174870    5.080587   -1.146495
C      2.359555    4.533231   -0.708816
C      2.364710    3.175383   -0.461109
S      3.935516    2.498443    0.096911
C      3.642070    0.772034    0.331762
C      4.684279    0.019498    0.774652
C      4.594845   -1.335703    1.008011
C      3.363079   -1.888870    0.760592
C      2.290560   -1.128856    0.307692
C      2.412332    0.229816    0.082258
S      3.161800   -3.632340    1.036574
C      3.579347   -4.476641   -0.492331
O      4.134979   -4.037433    2.132574
H     -3.570948   -0.630990    3.128488
H     -2.130705   -1.343380    2.356397
H     -2.147508    0.442774    2.843314
H     -4.677868   -1.549237    1.769059
H     -5.356130   -0.205581    0.817709
H     -3.630602   -2.498800   -0.262136
H     -5.384630   -2.139039   -0.475995
H     -3.943081   -1.372304   -2.393225
H     -4.989128   -0.130053   -1.680447
H     -3.226672    1.189936   -1.060572
H     -2.235596    0.071830   -2.083915
H     -1.962942   -1.371176    0.053720
H     -0.651267   -0.085409    1.398996
H     -1.191013    1.476228    0.826612
H     -0.336285    0.605049   -1.606113
H      0.086292   -0.835719   -0.746431
H     -0.817597    2.358588   -1.229564
H     -0.892502    4.709434   -1.670119
H      1.112778    6.143227   -1.356777
H      3.235576    5.143619   -0.569295
H      5.653127    0.470742    0.966299
H      5.406275   -1.953348    1.358572
H      1.364667   -1.678791    0.159112
H      3.021890   -3.974479   -1.316254
H      4.661168   -4.439759   -0.645961
H      3.276143   -5.536283   -0.371455
