33

C     -1.756213   -1.048911    1.596133
C     -2.339240   -0.140971    0.577265
C     -3.694364    0.114730    0.572712
C     -4.253487    0.968413   -0.382670
C     -3.410078    1.544632   -1.317003
C     -2.053896    1.278163   -1.298979
C     -1.498561    0.430225   -0.350019
N     -0.109878    0.133949   -0.301703
C      0.434385   -0.755749   -1.181980
N      1.748657   -1.032130   -1.131601
C      2.594442   -0.484031   -0.255323
C      3.952337   -0.792994   -0.230495
C      4.811888   -0.216727    0.682401
C      4.281585    0.681701    1.576776
C      2.924313    0.994646    1.556753
C      2.067751    0.421835    0.648718
C      0.712166    0.709151    0.599366
O      0.224796    1.531884    1.417891
C     -0.460614   -1.406224   -2.191172
H     -1.774959   -0.566733    2.589759
H     -0.742463   -1.363495    1.349068
H     -2.380512   -1.989692    1.607255
H     -4.309517   -0.364596    1.329464
H     -5.322310    1.148641   -0.358935
H     -3.818349    2.207366   -2.064792
H     -1.384638    1.732303   -2.036434
H      4.325818   -1.493696   -0.939375
H      5.874130   -0.455032    0.705771
H      4.893633    1.167228    2.314206
H      2.504231    1.700819    2.258828
H     -0.264183   -0.923346   -3.190835
H     -1.502357   -1.243707   -1.906005
H     -0.274512   -2.487652   -2.245045
