32

C      4.047993    2.243237   -1.210858
O      2.933283    1.394272   -1.166427
C      2.619084    0.657729   -0.031091
C      3.438951    0.785726    1.057215
C      3.169928    0.077410    2.204683
C      2.072279   -0.750167    2.228589
C      1.238106   -0.875896    1.110342
C      1.487303   -0.176182   -0.049388
O      0.778508   -0.192798   -1.196034
C     -0.358642   -0.829350   -1.606956
C     -1.577353   -0.456127   -0.822289
O     -1.738813    0.936257   -0.987553
C     -2.833418   -1.064468   -1.416319
O     -3.963886   -0.589874   -0.739972
C     -4.262905   -0.760078    0.579095
N     -5.426029   -0.248243    1.208634
O     -3.436416   -1.426879    1.294015
H      4.947910    1.673575   -0.916152
H      3.834110    3.101793   -0.531879
H      4.222363    2.577839   -2.255920
H      4.297907    1.447664    1.005522
H      3.816228    0.176739    3.066788
H      1.842183   -1.320457    3.129757
H      0.392342   -1.534012    1.140403
H     -0.571826   -0.484603   -2.666806
H     -0.213983   -1.947504   -1.636516
H     -1.555254   -0.683017    0.237544
H     -1.777007    1.384508   -0.111658
H     -2.894532   -0.823560   -2.479875
H     -2.830678   -2.178094   -1.307888
H     -5.965297   -0.829128    1.867404
H     -5.732437    0.713687    1.003590
