71

C      0.488064   -1.455926   -2.803342
N     -0.149481   -0.175495   -2.596166
C      0.140646    0.795404   -3.612994
C      0.052672    0.346018   -1.260818
C     -0.596314   -0.630435   -0.296378
C     -1.999091   -0.851616   -0.760752
C     -3.014151   -0.857854    0.377811
C     -2.849608    0.440304    1.069335
C     -3.789793    1.342272    1.250083
O     -3.549450    2.547974    1.916403
C     -5.153083    1.125140    0.756813
C     -6.132957    2.071076    0.932934
O     -5.797011    3.252396    1.612501
C     -7.391296    1.820086    0.438964
C     -7.636483    0.632143   -0.216980
C     -6.655496   -0.312056   -0.391734
C     -5.376559   -0.060211    0.109026
C     -4.383472   -1.126129   -0.113604
C     -4.977580   -2.398561    0.505579
O     -4.323854   -1.375046   -1.491529
C     -1.508885    0.708241    1.581212
O     -1.235539    1.653058    2.356362
C     -0.433780   -0.222808    1.128037
O     -0.496508   -1.388456    1.927084
C      0.902730    0.368297    1.387760
O      1.182114    0.721449    2.570947
C      1.924662    0.574126    0.373487
C      3.199677    0.809615    0.661979
O      3.598499    0.866214    1.990505
N      4.132904    0.999523   -0.394838
C      5.056788   -0.055597   -0.743425
N      5.885251   -0.360515    0.411409
C      6.833418   -1.405141    0.126044
C      7.879115   -1.256326    1.199046
C      7.680697    0.118965    1.797600
C      6.702364    0.748999    0.799496
C      1.484235    0.510812   -1.025001
O      2.360795    0.601743   -1.921084
H     -0.283601   -2.262931   -2.898331
H      1.243938   -1.680314   -2.021655
H      1.036047   -1.421009   -3.773188
H      0.257892    1.821801   -3.157289
H     -0.691736    0.848951   -4.360848
H      1.055898    0.551095   -4.187667
H     -0.533274    1.292114   -1.195576
H     -0.072675   -1.627271   -0.413272
H     -2.301265    0.029552   -1.387670
H     -2.122134   -1.796009   -1.333562
H     -2.723816   -1.700096    1.068922
H     -3.378163    3.348023    1.321599
H     -6.525515    3.932850    1.731984
H     -8.179653    2.567553    0.573920
H     -8.634898    0.432237   -0.609345
H     -6.882554   -1.234705   -0.912180
H     -5.512475   -2.999887   -0.254476
H     -5.651814   -2.109249    1.340806
H     -4.163554   -3.010959    0.981160
H     -4.387729   -0.550869   -2.019661
H     -1.049368   -1.200536    2.734522
H      3.445335   -0.003196    2.524536
H      4.165905    1.889988   -0.928178
H      5.644927    0.211143   -1.638794
H      4.516786   -1.004642   -1.019328
H      7.232543   -1.230127   -0.896818
H      6.371637   -2.425618    0.145526
H      8.922498   -1.267883    0.766033
H      7.783261   -1.999066    2.006260
H      8.630352    0.700453    1.827391
H      7.259487    0.089097    2.818252
H      7.295981    1.134904   -0.050033
H      6.177491    1.552925    1.332692
