36

C     -1.052146    3.580729   -0.162694
O     -0.809540    2.198031   -0.171464
C     -0.828782    1.467640    0.986375
O     -1.079236    2.126091    2.054783
C     -0.593660    0.030729    1.117447
C      0.803897   -0.324205    0.632733
C      1.033868    0.030126   -0.813711
C      2.399538   -0.552033   -1.182287
C      3.453734    0.074459   -0.339070
C      3.120517    0.086833    1.130234
N      1.772094    0.434800    1.413250
C     -1.558525   -0.824239    0.395893
C     -2.145320   -0.483878   -0.807030
C     -3.024259   -1.355111   -1.413145
C     -3.312822   -2.560369   -0.815507
C     -2.718398   -2.901721    0.400877
C     -1.853250   -2.051150    1.003167
H     -0.124348    4.177621   -0.300825
H     -1.512985    3.936330    0.788664
H     -1.769155    3.823647   -0.979110
H     -0.585944   -0.271959    2.210286
H      1.025671   -1.388684    0.762256
H      1.088709    1.119906   -0.997363
H      0.259239   -0.400741   -1.483041
H      2.568505   -0.229481   -2.247459
H      2.376041   -1.644484   -1.142547
H      4.385453   -0.555914   -0.439749
H      3.684148    1.077886   -0.742714
H      3.773615    0.871231    1.592910
H      3.408191   -0.862023    1.623835
H      1.570834    1.458171    1.388032
H     -1.904282    0.488167   -1.259481
H     -3.496790   -1.117560   -2.350819
H     -4.003508   -3.266673   -1.273021
H     -2.953430   -3.861611    0.869082
H     -1.397672   -2.330559    1.950869
