30

C     -1.131377   -2.497832   -0.114986
C     -1.633598   -1.113252   -0.412528
C     -0.653190   -0.030287    0.004209
C     -1.248913    1.311244   -0.335452
C     -2.553774    1.574572    0.357185
C     -0.256129   -0.148124    1.408943
O     -1.114475   -0.115153    2.356213
N      1.101757   -0.305468    1.799097
C      2.155693    0.256598    0.971189
C      1.933420   -0.077596   -0.461658
C      2.712023    0.955432   -1.287799
C      0.540781   -0.184511   -0.870881
O      0.303057   -0.424060   -2.044410
H     -0.396670   -2.531151    0.708105
H     -1.960232   -3.196490    0.125354
H     -0.607849   -2.960682   -1.002036
H     -2.594062   -0.985851    0.102034
H     -1.841647   -1.072261   -1.501428
H     -0.559687    2.133910   -0.092460
H     -1.422408    1.338716   -1.425316
H     -3.364080    0.902681    0.086922
H     -2.452446    1.579432    1.461658
H     -2.868427    2.603284    0.077314
H      1.327571   -0.833015    2.692581
H      2.244636    1.370840    1.133700
H      3.147452   -0.148932    1.268971
H      2.439501   -1.057720   -0.704492
H      3.718114    1.003636   -0.816550
H      2.270896    1.980579   -1.142306
H      2.764064    0.671458   -2.341174
