83

N     -2.412838    5.796156   -2.638637
C     -2.650691    4.405594   -2.194167
C     -3.756492    4.488953   -1.182300
C     -4.171283    3.138084   -0.623961
O     -5.199329    3.454812    0.296918
C     -3.040566    2.596035    0.158703
O     -3.036260    2.698771    1.434045
N     -1.909645    1.941146   -0.384079
C     -0.816382    1.426758    0.434835
C      0.457717    2.183409    0.182100
C      1.464163    1.454995   -0.632191
N      1.194216    1.507637   -2.066363
C      1.743735    0.053280   -0.154432
O      3.000548   -0.070176    0.433962
C      3.826089   -0.973603   -0.181985
O      5.009344   -0.402807   -0.650472
C      5.756469    0.204484    0.329054
C      6.929151    0.887056   -0.334126
N      7.715176    1.527337    0.708613
C      6.318488   -0.882075    1.223790
O      5.997776   -0.497369    2.543885
C      5.698504   -2.214980    0.941612
O      6.250247   -2.891358   -0.118265
C      4.185214   -2.053687    0.817054
O      3.744259   -1.703316    2.108821
C      0.731258   -0.389117    0.866495
O      0.819638   -1.759035    1.085833
C     -0.649791   -0.065871    0.274991
O     -1.650329   -0.670466    1.043455
C     -2.420850   -1.550002    0.285577
O     -2.171563   -2.825045    0.796792
C     -2.831973   -3.835977    0.148736
C     -2.387146   -4.051331   -1.283307
O     -3.168470   -5.123228   -1.776900
C     -4.305323   -3.652319    0.239292
O     -4.858316   -4.608876    1.119120
C     -4.769801   -2.314811    0.705568
N     -6.064707   -2.057850    0.073327
C     -3.862858   -1.169030    0.372650
O     -4.026317   -0.229817    1.418482
H     -1.915622    5.724926   -3.549419
H     -3.366088    6.234181   -2.750658
H     -1.713164    4.102072   -1.642686
H     -2.841018    3.726008   -3.028549
H     -3.440979    5.181373   -0.394403
H     -4.626086    4.987565   -1.692284
H     -4.539350    2.462474   -1.394029
H     -4.776252    3.925993    1.064873
H     -1.841691    1.798766   -1.404665
H     -1.062122    1.603089    1.511514
H      0.942605    2.551390    1.115278
H      0.174278    3.108184   -0.381157
H      2.439419    2.017915   -0.514371
H      0.274220    1.146174   -2.329177
H      1.307110    2.533996   -2.321708
H      1.661528   -0.624288   -1.029648
H      3.360851   -1.472557   -1.061362
H      5.132701    0.931844    0.870273
H      6.634157    1.592729   -1.116470
H      7.590854    0.085553   -0.757934
H      7.436544    2.539580    0.820210
H      8.738049    1.479587    0.479851
H      7.420621   -0.971939    1.134724
H      6.240157    0.447817    2.703998
H      5.847403   -2.856302    1.858720
H      5.601494   -3.403735   -0.658289
H      3.733692   -3.024626    0.583954
H      3.540662   -0.731260    2.161430
H      0.860584    0.208678    1.791999
H      0.603484   -1.932954    2.044859
H     -0.682403   -0.409054   -0.775109
H     -2.075494   -1.567968   -0.758692
H     -2.563655   -4.780034    0.699638
H     -2.648830   -3.155604   -1.882157
H     -1.326144   -4.297288   -1.282134
H     -2.921054   -5.966810   -1.362202
H     -4.741470   -3.926530   -0.765353
H     -5.806199   -4.392991    1.319531
H     -5.004081   -2.341244    1.811210
H     -6.771207   -2.776977    0.357602
H     -6.449648   -1.132374    0.309788
H     -4.238231   -0.657920   -0.535511
H     -4.870684    0.260203    1.338304
