18

N      3.194014   -0.459862   -0.008100
C      1.793780   -0.202803    0.004581
C      1.248698    0.990672    0.412794
C     -0.111352    1.207056    0.412809
C     -0.997108    0.206117   -0.008338
C     -2.404580    0.530094    0.028573
O     -2.866565    1.784784    0.464254
O     -3.271006   -0.280192   -0.321131
C     -0.456777   -0.983901   -0.415556
O     -1.279655   -2.000487   -0.838790
C      0.938636   -1.188700   -0.409222
H      3.863471    0.175804   -0.494397
H      3.615057   -1.291266    0.465483
H      1.965756    1.756571    0.737363
H     -0.524029    2.149753    0.736302
H     -3.793559    1.867795    0.910544
H     -2.226282   -2.100520   -0.931245
H      1.311503   -2.160917   -0.745924
