67

C     -5.350309   -4.636892    0.829393
O     -4.470795   -3.542821    0.633262
C     -4.961917   -2.466837   -0.095507
C     -6.247842   -2.437538   -0.618428
C     -6.737354   -1.370162   -1.342380
C     -5.926260   -0.272785   -1.567125
C     -4.659419   -0.300352   -1.052574
C     -3.807032    0.868799   -1.296672
O     -4.244819    1.836992   -1.950911
C     -2.439833    0.911915   -0.777640
C     -1.671905    2.070780   -1.049294
O     -2.260385    3.081129   -1.784990
C     -0.400670    2.071329   -0.546178
C      0.466116    3.286608   -0.778543
C      1.106238    3.670468    0.558885
O      1.967430    4.747265    0.313358
C      1.907677    2.535546    1.064305
C      1.546633    1.157426    0.653559
O      2.332464    0.842761   -0.488022
C      3.095463   -0.293066   -0.281376
C      2.798154   -1.407248   -1.231936
C      4.019602   -2.302074   -1.347788
N      3.587718   -3.583433   -1.817568
C      4.771241   -2.409244   -0.040747
O      4.115967   -3.182579    0.892297
C      5.099820   -1.020912    0.452713
C      4.664892   -0.821632    1.888883
O      4.461792   -0.036326   -0.313022
C      0.153761    1.028315    0.190046
C     -0.639531   -0.087930    0.430778
O     -0.088285   -1.104694    1.153474
C     -1.935368   -0.140691   -0.055146
C     -2.786815   -1.293072    0.180984
O     -2.419258   -2.298548    0.825947
C     -4.167667   -1.356891   -0.333126
C      0.063853    4.141314    1.494508
C      0.115804    5.546269    1.961435
O     -0.809646    3.400330    1.870176
H     -5.765369   -5.009376   -0.133705
H     -4.799971   -5.486397    1.290517
H     -6.198571   -4.321658    1.491827
H     -6.902396   -3.287031   -0.454784
H     -7.737394   -1.350367   -1.747369
H     -6.304240    0.572408   -2.136570
H     -1.809589    3.909791   -2.025202
H     -0.125309    4.123869   -1.129709
H      1.263196    2.957419   -1.471090
H      2.482989    4.643065   -0.509401
H      1.882710    2.585601    2.188799
H      2.977506    2.708534    0.721539
H      1.746042    0.395012    1.446183
H      2.871871   -0.652411    0.746112
H      2.574779   -1.061286   -2.261272
H      1.913979   -1.966864   -0.887187
H      4.745006   -1.858619   -2.083040
H      4.295636   -3.949620   -2.500401
H      2.681927   -3.537147   -2.349276
H      5.740764   -2.912346   -0.274161
H      4.292171   -4.137487    0.645478
H      6.192289   -0.805868    0.402514
H      3.930191   -1.566900    2.229552
H      4.207224    0.191368    2.045612
H      5.561220   -0.831282    2.569214
H     -0.364674   -1.968829    1.473453
H      0.707888    5.681906    2.886373
H     -0.917824    5.922733    2.034366
H      0.608437    6.180265    1.166599
