31

Cl    -1.125948    3.876719    1.648169
C     -1.556296    2.266518    1.108422
C     -2.888474    1.911423    1.054180
C     -3.209188    0.643223    0.628029
C     -2.201109   -0.246562    0.264498
N     -2.716591   -1.498594   -0.144204
C     -2.003637   -2.726775   -0.223707
O     -2.686457   -3.661475   -0.712530
C     -0.636231   -3.106321    0.153017
C      0.390372   -2.088180   -0.062045
O      1.571536   -2.501687   -0.329344
N      0.293361   -0.691437   -0.023243
C      1.432932    0.099087   -0.347139
C      2.579433   -0.017741    0.402062
C      3.724442    0.724923    0.135005
C      3.670468    1.590110   -0.915779
C      2.546455    1.732710   -1.683382
C      1.428019    0.985101   -1.396408
C     -0.859434    0.103069    0.316245
C     -0.553802    1.374086    0.744169
H     -3.693613    2.583224    1.330845
H     -4.234646    0.323483    0.569829
H     -3.717328   -1.540065   -0.416673
H     -0.628257   -3.412122    1.226768
H     -0.350082   -4.009084   -0.436844
H      2.645238   -0.707553    1.252145
H      4.625085    0.631272    0.725426
H      4.550360    2.178832   -1.141798
H      2.550639    2.420790   -2.494247
H      0.558463    1.116747   -2.015833
H      0.494288    1.646282    0.784366
