26

C     -0.930880   -1.701296    0.960452
N     -1.268688   -0.912486   -0.186705
C     -2.571780   -0.298151   -0.088860
C     -2.401121    1.175454   -0.337023
C     -0.926960    1.406389   -0.088599
C     -0.337446    0.083823   -0.548631
C      1.018982   -0.070561   -0.054370
C      1.684928    1.009024    0.483369
C      2.992271    0.887032    0.966425
C      3.626639   -0.321527    0.907193
N      2.975246   -1.366522    0.384012
C      1.697388   -1.267134   -0.093223
H     -0.118819   -1.319390    1.572189
H     -1.844927   -1.716246    1.620344
H     -0.788667   -2.754919    0.648492
H     -3.067543   -0.513893    0.878365
H     -3.195790   -0.703733   -0.915853
H     -2.971904    1.814662    0.347131
H     -2.607754    1.449000   -1.403149
H     -0.516163    2.216197   -0.724464
H     -0.785440    1.581388    0.981579
H     -0.312195    0.147438   -1.674126
H      1.247248    1.987145    0.561093
H      3.528335    1.724626    1.391261
H      4.650658   -0.402584    1.289275
H      1.224380   -2.133735   -0.500706
