31

C      3.792313   -1.162190    0.438121
C      3.688838    0.213424    0.442351
C      2.474697    0.814549    0.203479
C      1.401142    0.017083   -0.034204
C      1.417913   -1.382416   -0.055317
C      2.671316   -1.918787    0.193453
C      0.382741   -2.382901   -0.271583
C     -0.968193   -2.138534   -0.300239
O     -0.288640   -2.168792   -1.555580
C     -1.584577   -0.852661    0.100836
C     -2.894940   -0.985344    0.535428
C     -3.639065    0.094130    0.967001
C     -3.090605    1.361056    0.979927
C     -1.799886    1.552353    0.562279
C     -1.094854    0.456188    0.139288
N      0.230665    0.799649   -0.295560
C      0.361340    1.970295   -1.060463
O      1.473685    2.369438   -1.487716
N     -0.760232    2.794929   -1.420250
H      4.769711   -1.609270    0.630897
H      4.555354    0.831739    0.631891
H      2.312318    1.892156    0.221640
H      2.785806   -2.993935    0.197769
H      0.748467   -3.441907   -0.133157
H     -1.683327   -2.986246   -0.240567
H     -3.350766   -1.987142    0.533703
H     -4.667653   -0.078221    1.296425
H     -3.638653    2.223578    1.308689
H     -1.278835    2.516710    0.572881
H     -1.623878    2.358172   -1.763681
H     -0.702201    3.822899   -1.337741
