41

C      5.194795    0.670083   -0.978729
N      4.479429    0.566083    0.246514
C      3.288354   -0.207553    0.238324
C      2.151714    0.354516   -0.538501
C      0.937039   -0.488119   -0.494241
C     -0.260391   -0.310382   -0.113220
C     -1.230312   -1.436511   -0.239568
C     -0.650519   -2.650626   -0.163252
C     -1.371698   -3.809878   -0.290704
C     -2.725092   -3.710745   -0.500545
C     -3.351154   -2.489381   -0.581536
C     -2.595110   -1.312288   -0.448187
C     -3.488430   -0.167121   -0.514234
C     -2.919937    1.145316   -0.890599
C     -1.861798    1.653405    0.064127
C     -2.117402    2.876265    0.620655
C     -1.184303    3.391582    1.526854
C     -0.021742    2.698030    1.869775
C      0.222589    1.474221    1.307129
C     -0.697379    0.986191    0.421089
H      4.490064    0.696789   -1.824700
H      5.860065    1.554872   -1.031146
H      5.794314   -0.274931   -1.122791
H      5.065067    0.468047    1.089730
H      3.019690   -0.441906    1.286584
H      3.551871   -1.192154   -0.272409
H      1.921647    1.393183   -0.351517
H      2.516090    0.383108   -1.640488
H      1.148843   -1.507714   -0.917851
H      0.413183   -2.705831    0.036539
H     -0.861538   -4.772384   -0.223705
H     -3.271801   -4.652988   -0.598607
H     -4.398278   -2.425051   -0.743458
H     -4.310916   -0.379889   -1.263942
H     -4.073698   -0.034845    0.454415
H     -3.654065    1.940521   -0.992872
H     -2.454275    1.028007   -1.913193
H     -3.012899    3.397565    0.349873
H     -1.343368    4.345164    1.985706
H      0.700489    3.099782    2.570829
H      1.100863    0.847568    1.563607
