80

C      5.436214   -1.430165    2.959915
N      4.821392   -1.440264    1.669864
C      3.427140   -1.733704    1.677566
C      2.633486   -0.477976    1.980198
C      2.859828    0.462624    0.797638
C      4.329250    0.809329    0.818223
C      5.213330   -0.389948    0.793616
C      6.650276    0.030623    1.092726
C      7.024374    0.976926   -0.020031
C      8.182370    1.326034   -0.677758
N      7.907838    2.265885   -1.634879
C      6.589263    2.535535   -1.612287
C      5.699148    3.351558   -2.287852
C      4.338802    3.345003   -1.954553
C      3.817636    2.545640   -0.959034
C      4.718446    1.724562   -0.280655
C      6.050413    1.743186   -0.620391
C      1.191081   -0.767236    2.189802
O      0.604385   -0.496219    3.269989
N      0.375992   -1.366809    1.192115
C     -1.011350   -1.646152    1.390107
C     -1.147547   -2.585078    2.571183
O     -1.530717   -2.324416    0.292428
C     -2.485964   -1.548343   -0.321842
O     -1.870858   -1.007997   -1.475696
C     -3.593556   -2.418498   -0.775561
C     -3.539855   -2.743654   -2.268884
C     -4.931645   -3.293161   -2.499524
C     -5.789054   -2.774739   -1.351860
N     -4.914533   -1.843773   -0.667008
C     -5.194899   -0.631047   -0.014195
O     -6.367617   -0.318840    0.266303
C     -4.059371    0.257331    0.327093
C     -3.885252    1.225232   -0.812518
C     -5.139800    1.992658   -0.954065
C     -5.360447    3.164535   -0.291420
C     -6.566204    3.842033   -0.468479
C     -7.543504    3.353374   -1.299771
C     -7.326335    2.182422   -1.963314
C     -6.123348    1.507420   -1.786114
N     -2.853624   -0.500157    0.604861
C     -1.860720   -0.493397    1.615772
O     -1.758115    0.355740    2.518676
H      5.500873   -0.432799    3.429562
H      6.396412   -1.966718    2.902329
H      4.795629   -2.045805    3.650505
H      3.247295   -2.526932    2.433685
H      3.158699   -2.121967    0.662435
H      3.028574   -0.045929    2.904396
H      2.284987    1.380760    0.978852
H      2.563712   -0.062341   -0.133619
H      4.508130    1.356226    1.774531
H      5.225334   -0.792242   -0.251267
H      6.653279    0.631825    2.019860
H      7.343550   -0.810669    1.097604
H      9.162817    0.933867   -0.486297
H      8.570274    2.726629   -2.293775
H      6.069476    3.988753   -3.071681
H      3.698818    4.006968   -2.522153
H      2.781229    2.540757   -0.705313
H      0.799541   -1.615634    0.274882
H     -0.136683   -2.771973    2.976586
H     -1.647962   -3.541610    2.296414
H     -1.698130   -2.073546    3.392364
H     -1.490700   -0.110672   -1.288402
H     -3.613954   -3.399873   -0.254443
H     -3.484374   -1.789921   -2.859391
H     -2.743572   -3.444567   -2.513249
H     -4.938245   -4.403906   -2.467438
H     -5.339687   -2.947257   -3.486966
H     -6.007705   -3.607929   -0.647221
H     -6.709599   -2.324892   -1.731350
H     -4.286411    0.871965    1.242003
H     -3.063497    1.941893   -0.584249
H     -3.684630    0.738102   -1.773783
H     -4.607988    3.553595    0.357011
H     -6.719014    4.761952    0.061571
H     -8.501434    3.874946   -1.451384
H     -8.111381    1.812042   -2.616125
H     -6.020019    0.580457   -2.346870
