55

C     -3.301198    3.863616    0.778785
C     -2.544510    3.960132   -0.533463
O     -2.090035    2.714353   -0.972828
C     -1.228368    1.911636   -0.229339
O     -0.867043    2.371164    0.881797
C     -0.792936    0.602240   -0.751850
C     -2.008780   -0.247686   -1.039660
C     -2.797209   -0.450703    0.236372
C     -3.962663   -1.357111   -0.051763
C     -5.180129   -0.886449   -0.454633
C     -6.251128   -1.732219   -0.763201
C     -6.052198   -3.101576   -0.651133
C     -4.830316   -3.588799   -0.245722
C     -3.798299   -2.745304    0.052273
N      0.054812   -0.114953    0.084430
C      1.360008    0.315086    0.402643
C      1.566191    0.235224    1.898932
C      2.342125   -0.540645   -0.357024
O      1.772107   -1.374494   -1.167820
N      3.732253   -0.499287   -0.255035
C      4.622769   -1.317902   -1.053305
C      5.719288   -1.661531   -0.052290
C      5.281489   -0.993880    1.269813
C      4.566084    0.244851    0.615835
C      5.612380    1.067337   -0.023579
O      5.915369    1.162149   -1.359320
O      6.334649    1.784136    0.757475
H     -3.988207    4.723511    0.850659
H     -3.897660    2.954685    0.863648
H     -2.573577    4.005197    1.631182
H     -1.715722    4.662391   -0.421107
H     -3.298597    4.312159   -1.287849
H     -0.290340    0.813133   -1.777157
H     -1.589353   -1.270918   -1.290640
H     -2.643148    0.149882   -1.848180
H     -2.145210   -0.991948    0.953250
H     -3.108691    0.530395    0.630202
H     -5.388151    0.171755   -0.559960
H     -7.189043   -1.354453   -1.081588
H     -6.885896   -3.770865   -0.895864
H     -4.671325   -4.670874   -0.163194
H     -2.845540   -3.133380    0.366802
H     -0.085007   -1.123870    0.158933
H      1.495428    1.380322    0.072705
H      2.272364   -0.575613    2.205059
H      1.861265    1.212207    2.353925
H      0.610881   -0.054322    2.443456
H      4.984980   -0.813232   -1.952293
H      4.084689   -2.262300   -1.371468
H      5.654508   -2.755933    0.130060
H      6.700729   -1.316515   -0.359780
H      4.457155   -1.561095    1.742356
H      6.108168   -0.696448    1.893741
H      4.031129    0.809070    1.410366
H      6.879462    1.007672   -1.713653
