111

C     -4.657421    5.108009    1.367357
C     -5.661346    4.106566    0.842389
C     -4.949265    3.353813   -0.313420
O     -4.644645    4.400872   -1.222624
C     -3.719111    2.769965    0.220391
C     -3.421056    1.319744   -0.061029
O     -2.602372    1.120310   -1.137873
C     -1.254131    0.864101   -0.819900
C     -0.382432    1.818545   -1.591839
C      1.062897    1.533664   -1.490114
C      1.390334    0.343198   -0.673779
O      2.606737   -0.122604   -0.659940
C      3.675222   -0.287988   -0.001912
C      4.004659   -1.708062    0.472850
C      5.249856   -1.625418    1.328974
O      5.540878   -2.892453    1.877498
C      6.435527   -1.109041    0.544667
O      7.420218   -2.043501    0.355615
C      8.701472   -1.601450    0.771546
C      9.235579   -2.338536    1.951497
C     10.350763   -3.301229    1.641204
C     11.360833   -2.585809    0.820822
O     12.536375   -2.862462    0.932300
C     10.866987   -1.536116   -0.122082
C     11.448839   -0.169347    0.157734
O      9.524225   -1.526546   -0.320095
C      5.857703   -0.612703   -0.792496
C      6.939571    0.112548   -1.573167
O      4.867261    0.266679   -0.503772
C      0.351931   -0.790559   -0.808319
C      0.275252   -1.451034    0.552022
O     -0.889508   -0.406281   -1.203898
N      1.619185    2.756153   -0.839764
C      3.035704    2.857103   -0.929979
C      0.979729    3.951810   -1.371522
C     -4.632728    0.529616   -0.151289
C     -4.535069   -0.863376    0.173308
O     -3.341457   -1.328299    0.547150
C     -5.688546   -1.638636    0.078112
C     -5.662310   -3.084703    0.397219
O     -4.568208   -3.544841    0.745740
C     -6.859953   -3.906214    0.302178
C     -6.830953   -5.257340    0.600904
O     -5.681028   -5.868548    0.993865
C     -8.013016   -6.023038    0.497809
C     -9.195370   -5.446190    0.104216
C     -9.236490   -4.111575   -0.193483
C     -8.078867   -3.356989   -0.093929
C     -8.106412   -1.940895   -0.406397
O     -9.187709   -1.389024   -0.771679
C     -6.885199   -1.115005   -0.307594
C     -6.941414    0.219017   -0.609215
C     -5.817943    1.059816   -0.536409
C     -5.974234    2.462538   -0.900117
C     -7.366378    2.948221   -0.654070
O     -8.025290    3.469682   -1.582484
O     -7.968106    2.841265    0.590519
C     -9.285124    3.317456    0.785224
H     -5.161818    6.092150    1.544280
H     -4.295397    4.775872    2.357454
H     -3.788760    5.217259    0.700664
H     -6.544067    4.644271    0.438545
H     -5.889151    3.396609    1.657741
H     -4.516035    3.980799   -2.095524
H     -2.866550    3.429182   -0.078503
H     -3.724070    2.878421    1.352383
H     -2.808464    1.006047    0.837958
H     -1.166456    1.014965    0.267214
H     -0.728544    1.856201   -2.676198
H     -0.694280    2.843017   -1.227692
H      1.459601    1.485209   -2.533877
H      1.191125    0.722837    0.398722
H      3.559146    0.231984    1.019522
H      3.191992   -1.989020    1.196474
H      4.121089   -2.421718   -0.333396
H      5.099157   -0.924051    2.179317
H      4.703598   -3.388245    1.905248
H      6.918849   -0.220546    1.048278
H      8.519002   -0.543434    1.127055
H      8.385753   -2.954174    2.368829
H      9.530672   -1.649131    2.778188
H      9.981339   -4.242923    1.187159
H     10.861601   -3.525977    2.616248
H     11.326554   -1.842288   -1.116990
H     12.277849    0.098334   -0.546986
H     10.684583    0.632277    0.033773
H     11.930704   -0.171596    1.157494
H      5.583847   -1.510942   -1.371610
H      7.594665   -0.633430   -2.061180
H      6.452263    0.716913   -2.368886
H      7.542144    0.799697   -0.950697
H      0.712482   -1.520480   -1.584793
H     -0.707556   -1.729996    0.889987
H      0.820175   -0.876473    1.342529
H      0.871495   -2.409056    0.466929
H      3.260425    3.974255   -1.023338
H      3.584956    2.561489   -0.038321
H      3.427394    2.446585   -1.879528
H      0.570776    3.821460   -2.387734
H      1.823992    4.701125   -1.527582
H      0.315414    4.459243   -0.654162
H     -3.012603   -2.189006    0.794418
H     -4.789880   -5.561280    1.129490
H     -7.926579   -7.075794    0.747900
H    -10.099280   -6.047240    0.025886
H    -10.167149   -3.619101   -0.515182
H     -7.872252    0.645044   -0.914884
H     -5.824667    2.510998   -2.024972
H     -9.414615    4.353778    0.412294
H     -9.538686    3.372647    1.874626
H    -10.040422    2.692356    0.259781
