18

C      0.984854    0.894714    0.609209
C     -0.108453    1.412134   -0.299426
C     -1.253426    0.491992   -0.376948
C     -0.993373   -0.954583   -0.313480
C      0.206888   -1.377981    0.461034
C      1.355124   -0.466893    0.003210
H      0.495205    0.743919    1.615002
H      1.835099    1.562411    0.688372
H      0.327431    1.607415   -1.316416
H     -0.429458    2.388249    0.101169
H     -1.993713    0.782768    0.423761
H     -1.802085    0.703359   -1.342580
H     -0.861526   -1.348327   -1.364184
H     -1.877891   -1.502783    0.122883
H      0.118017   -1.244531    1.549161
H      0.430300   -2.442451    0.229369
H      1.241567   -0.428469   -1.120209
H      2.325441   -0.820943    0.330072
