45

C     -3.600597    2.224879   -0.477906
C     -3.954339    1.036720    0.367947
C     -4.914877    1.377281    1.468411
S     -2.463809    0.343313    1.191840
C     -2.549664   -1.315226    0.402223
C     -1.357570   -1.669393   -0.426366
N     -0.351242   -0.636754   -0.550750
C      1.030774   -0.861137   -0.333006
O      1.382927   -2.021062   -0.016636
C      2.058824    0.193146   -0.459950
C      3.404467   -0.397808   -0.160130
C      4.517783    0.621214   -0.268600
C      5.818182   -0.124616    0.062125
N      5.973896   -1.192867   -0.899715
C      6.970645    0.795058   -0.029401
O      7.093548    1.914604    0.774378
O      7.874617    0.561211   -0.861957
C     -2.348014   -1.668818   -1.529394
O     -2.349680   -2.137810   -2.693228
N     -3.318783   -0.935372   -0.794734
C     -4.453307   -0.130698   -0.401547
C     -5.512886   -0.918849    0.241256
O     -6.685115   -0.287139    0.617507
O     -5.343358   -2.147738    0.439353
H     -3.762491    1.979981   -1.561325
H     -4.358065    3.024178   -0.247724
H     -2.591642    2.621859   -0.292194
H     -5.865472    1.828247    1.110423
H     -5.062253    0.473415    2.094217
H     -4.406807    2.110983    2.155529
H     -3.002151   -2.088708    1.017921
H     -0.971905   -2.665862   -0.144561
H     -0.660620    0.319756   -0.813876
H      1.825815    1.008339    0.253948
H      2.053130    0.570001   -1.513308
H      3.382238   -0.735013    0.910776
H      3.600429   -1.289176   -0.761787
H      4.392736    1.448702    0.432057
H      4.581429    1.033972   -1.290860
H      5.762937   -0.547165    1.084583
H      6.932768   -1.309599   -1.240080
H      5.645732   -2.092253   -0.473555
H      8.026855    2.246896    1.009826
H     -4.902244    0.276914   -1.353236
H     -7.542839   -0.837609    0.763968
