26

C     -3.775870    0.182719   -0.631338
N     -3.152460   -0.835378    0.150278
C     -1.727847   -0.923062    0.047642
C     -0.997763    0.247660    0.655280
O     -1.281277    0.394994    2.010654
C      0.460313    0.128567    0.538705
C      1.142083   -1.059047    0.596165
C      2.514289   -1.129606    0.489659
C      3.247223    0.045278    0.317130
O      4.635490   -0.048698    0.212896
C      2.583006    1.249644    0.256223
O      3.373119    2.378589    0.083069
C      1.207046    1.274073    0.367270
H     -4.207794    1.024557   -0.032065
H     -3.185243    0.522907   -1.495987
H     -4.686226   -0.305045   -1.096059
H     -3.568703   -1.778670    0.045366
H     -1.403067   -1.901056    0.395977
H     -1.481009   -0.907017   -1.057379
H     -1.325653    1.165649    0.148015
H     -0.766504   -0.274429    2.504589
H      0.607202   -1.985807    0.728675
H      3.034783   -2.073229    0.535957
H      5.089937   -0.931664    0.259107
H      2.913643    3.280245    0.034308
H      0.751284    2.257825    0.311333
