63

C      4.837442   -0.654147    0.964488
O      3.844086   -1.236199    1.749492
C      2.582414   -1.125341    1.217805
C      2.010597   -2.473821    0.805717
O      1.864098   -3.279184    1.930958
C      0.762538   -2.254563    0.046065
N      1.105734   -2.140365   -1.393242
C     -0.043185   -1.062795    0.449196
O     -1.391055   -1.244807    0.112205
C     -1.872360   -0.377543   -0.863835
O     -2.128307   -1.201344   -1.954763
C     -2.949917   -0.744862   -2.932207
C     -4.255617   -0.224891   -2.450804
C     -4.373443   -0.174111   -0.942899
C     -3.087503    0.268446   -0.301248
N     -3.236736    0.012179    1.132521
C     -2.296911    0.135996   -3.971915
C     -1.654490    1.371714   -3.460322
N     -3.289743    0.551192   -4.978744
C      0.172275   -0.653694    1.838612
O     -0.361970    0.622134    2.125999
C      1.614675   -0.578385    2.227723
N      2.020957    0.761495    2.616509
C      2.481537    0.957126    4.000973
C      2.016805    1.892768    1.770568
O      1.672272    1.904246    0.572484
C      2.462604    3.217752    2.333266
N      2.376098    4.214620    1.307281
H      4.623152    0.400707    0.833570
H      5.073362   -1.236982    0.068803
H      5.775198   -0.679197    1.607992
H      2.664188   -0.559149    0.278320
H      2.769596   -2.974646    0.169202
H      1.951586   -4.238273    1.786166
H      0.113088   -3.153464    0.196448
H      1.984772   -2.676701   -1.579473
H      0.291200   -2.538191   -1.943481
H      0.268102   -0.225370   -0.231156
H     -1.100586    0.343494   -1.133584
H     -3.193932   -1.684863   -3.536230
H     -5.071625   -0.875910   -2.820943
H     -4.480006    0.782089   -2.864288
H     -5.201554    0.462102   -0.586646
H     -4.591701   -1.205668   -0.605184
H     -2.989023    1.377136   -0.421246
H     -4.260057    0.154218    1.398448
H     -3.091252   -1.035177    1.226263
H     -1.538262   -0.452532   -4.525422
H     -2.183998    1.856767   -2.628200
H     -1.664638    2.134088   -4.297345
H     -0.555020    1.225755   -3.285797
H     -2.945711    1.339922   -5.545151
H     -3.379515   -0.280945   -5.632974
H     -0.330413   -1.417184    2.511966
H     -0.002971    0.866779    3.013650
H      1.762489   -1.231219    3.156099
H      3.562476    0.800959    4.006866
H      2.190736    1.943294    4.405849
H      2.043255    0.169243    4.664138
H      1.783757    3.496462    3.151976
H      3.519099    3.143661    2.676828
H      2.037600    5.108971    1.724227
H      3.283711    4.376215    0.808430
