70

N     -7.850662   -0.606502   -0.091430
C     -6.617267   -0.257881    0.575019
C     -5.415446   -0.450392   -0.333425
O     -4.292024   -0.102839    0.361682
C     -3.106108   -0.168135   -0.272009
O     -2.171339    0.577822    0.395816
C     -1.106434   -0.119192    0.911128
C     -1.199882    0.051790    2.414301
N     -2.471037   -0.291606    2.936832
C     -0.050255   -0.689320    3.054173
C      1.189132    0.103421    2.688833
N      0.904755    1.502777    2.986741
C      1.392294   -0.024527    1.207837
O      2.464078    0.795170    0.859081
C      3.568258    0.072777    0.383657
O      4.667173    0.242752    1.173922
C      5.812862   -0.356497    0.714426
C      5.881870   -1.845470    0.915994
O      4.899718   -2.570734    0.297743
C      6.237192    0.053423   -0.673039
O      6.347228   -1.032060   -1.533275
C      5.192772    0.981214   -1.277245
N      5.422898    1.124343   -2.690876
C      3.815489    0.378670   -1.078043
O      3.677148   -0.747371   -1.888577
C      0.221903    0.337271    0.378635
O      0.223439    1.726242    0.157456
C     -3.076611    0.214035   -1.717435
N     -2.539373    1.578364   -1.838809
C     -4.393868    0.207944   -2.407354
O     -4.628964   -1.028560   -3.022883
C     -5.570692    0.473897   -1.502453
O     -5.606425    1.807969   -1.130748
H     -7.963208   -1.607054   -0.285796
H     -8.678753   -0.125817    0.274278
H     -6.556714   -0.890990    1.489168
H     -6.713867    0.808926    0.895080
H     -5.437003   -1.489554   -0.697263
H     -2.755473   -1.242811   -0.230646
H     -1.161804   -1.214239    0.712843
H     -0.992767    1.146494    2.599827
H     -3.144442    0.490574    2.782870
H     -2.862518   -1.131280    2.466523
H     -0.136966   -0.679509    4.156878
H     -0.014113   -1.719056    2.651779
H      2.082482   -0.264565    3.198281
H      1.492485    1.740553    3.837763
H      1.217902    2.144752    2.234151
H      1.684894   -1.090608    1.017326
H      3.250405   -0.988785    0.426212
H      6.638494    0.054655    1.391496
H      5.806007   -2.036987    2.012703
H      6.859301   -2.244024    0.575199
H      5.187097   -3.437346   -0.052235
H      7.201688    0.599186   -0.708174
H      7.300017   -1.263763   -1.665441
H      5.202775    1.967037   -0.748498
H      5.730061    2.107952   -2.866779
H      6.104452    0.463426   -3.083797
H      3.093440    1.129263   -1.471160
H      3.246886   -0.538796   -2.761705
H      0.361573   -0.133635   -0.617551
H      0.127265    1.948037   -0.801177
H     -2.371807   -0.419374   -2.297636
H     -1.984952    1.687969   -2.705317
H     -3.331440    2.259396   -1.767110
H     -4.450836    0.973689   -3.234852
H     -4.169828   -1.043084   -3.911589
H     -6.486295    0.176333   -2.091314
H     -5.196259    1.924239   -0.249721
