44

C     -3.481216    2.416512   -0.813715
C     -2.657365    1.112794   -0.817676
C     -2.299006    0.764425    0.565411
N     -1.557022   -0.411154    0.834787
C     -0.229827   -0.188819    0.237994
C      0.831486   -1.113021    0.659727
C      2.111154   -0.793748   -0.027705
C      2.882306    0.307181    0.265667
C      4.097201    0.529232   -0.387656
C      4.560394   -0.354050   -1.351453
C      3.783398   -1.462743   -1.647926
C      2.594060   -1.671642   -1.001125
O      5.763774   -0.126176   -1.994207
N      4.721572    1.689625    0.088594
C      3.909946    2.250762    1.075997
O      4.105499    3.282589    1.798668
C      2.676674    1.450878    1.214552
C     -2.068048   -1.650864    0.398179
C     -3.284338   -2.194672    1.055829
C     -4.542574   -1.420903    0.975537
H     -4.382118    2.326566   -1.451897
H     -3.868635    2.527593    0.231627
H     -2.877519    3.288420   -1.111629
H     -3.195747    0.410388   -1.430858
H     -1.737230    1.399148   -1.418835
H     -3.203222    0.790818    1.196475
H     -1.706280    1.666129    0.958794
H      0.047989    0.862702    0.331536
H     -0.386399   -0.336117   -0.880521
H      1.046755   -0.963702    1.749251
H      0.653936   -2.195523    0.509153
H      4.152279   -2.149217   -2.404376
H      1.993156   -2.560788   -1.247586
H      6.289587    0.683603   -1.764162
H      5.648467    2.106338   -0.216792
H      2.475340    1.107740    2.238706
H      1.861561    2.124089    0.842103
H     -1.271501   -2.436404    0.569561
H     -2.167250   -1.677414   -0.742407
H     -3.111403   -2.406877    2.155890
H     -3.415152   -3.247636    0.639643
H     -5.436645   -2.112000    0.861513
H     -4.541284   -0.833113    0.038929
H     -4.786751   -0.790951    1.853397
