84

N     -5.378192    4.928694   -1.806242
C     -5.132817    3.560579   -1.392633
C     -3.974719    2.925633   -2.138113
C     -2.749176    3.772608   -1.835222
O     -3.065394    5.046286   -2.308927
C     -1.533663    3.247098   -2.519891
N     -1.069648    1.979360   -2.176027
C     -0.527236    1.735785   -0.896349
C      0.698719    2.562825   -0.698066
C      1.583072    2.175402    0.423954
N      2.786987    3.013697    0.321779
C      1.941198    0.721674    0.302182
O      2.679954    0.440834    1.471257
C      3.944385   -0.057018    1.197201
O      3.948543   -1.355374    1.732525
C      5.199151   -1.939196    1.705997
C      5.066837   -3.345587    2.235292
N      4.573721   -3.405715    3.574871
C      6.104964   -1.175782    2.666084
O      7.278337   -1.829220    2.937023
C      6.323379    0.185130    1.996003
O      6.843959   -0.078029    0.736407
C      4.947966    0.821403    1.907971
O      4.509809    1.037970    3.208970
C      0.683146   -0.076523    0.393145
O      0.215346    0.032104    1.710710
C     -0.399520    0.292009   -0.581862
O     -1.553156   -0.285908   -0.120239
C     -2.071883   -1.351450   -0.833886
O     -1.973251   -2.543245   -0.194877
C     -3.106749   -3.120938    0.266899
C     -2.743185   -4.389209    1.008410
O     -3.900050   -5.019790    1.504589
C     -4.108118   -3.430894   -0.817800
O     -5.404362   -3.306720   -0.382517
C     -3.904409   -2.474632   -1.985215
N     -2.979605   -2.995739   -2.968144
C     -3.397224   -1.146283   -1.424596
O     -4.388760   -0.822941   -0.460639
H     -5.368603    5.599123   -0.979415
H     -6.368379    5.031449   -2.180281
H     -4.869783    3.601640   -0.294739
H     -6.049393    2.939798   -1.457367
H     -3.866001    1.908428   -1.708521
H     -4.233335    2.924823   -3.212888
H     -2.679583    3.771370   -0.728845
H     -2.737562    5.720593   -1.638941
H     -0.711713    3.995987   -2.354885
H     -1.726407    3.286426   -3.614784
H     -1.700668    1.199152   -2.438223
H     -1.282901    2.144886   -0.152294
H      1.313260    2.530847   -1.645831
H      0.450174    3.641005   -0.544926
H      1.082915    2.322912    1.401335
H      2.570552    3.956180    0.681763
H      2.978592    3.121167   -0.713066
H      2.568431    0.471839   -0.562853
H      4.147719   -0.146369    0.117810
H      5.655976   -1.984548    0.715991
H      6.087919   -3.821460    2.237920
H      4.443335   -3.979818    1.577011
H      3.641005   -3.009242    3.718215
H      5.271278   -3.235847    4.308074
H      5.545532   -0.966461    3.602605
H      7.940308   -1.693574    2.188279
H      6.956307    0.847045    2.593254
H      6.768824    0.675079    0.124302
H      5.068544    1.762677    1.338162
H      3.875243    1.815560    3.155706
H      0.965577   -1.146707    0.275522
H     -0.625493   -0.515066    1.768790
H     -0.126891   -0.254153   -1.522550
H     -1.307931   -1.436006   -1.687557
H     -3.589745   -2.449269    0.999685
H     -2.227489   -5.121414    0.360951
H     -2.136546   -4.153952    1.924818
H     -3.608724   -5.918596    1.797603
H     -3.932964   -4.439699   -1.186283
H     -5.902983   -4.149331   -0.518022
H     -4.850994   -2.251215   -2.512378
H     -2.278656   -2.292358   -3.272685
H     -2.548331   -3.885319   -2.604005
H     -3.436656   -0.385078   -2.237626
H     -5.132113   -0.361404   -0.878861
