51

C     10.009612    1.294477    0.072320
C      8.677775    0.711889    0.475982
S      7.650181   -0.405676   -0.308380
C      6.401542   -0.459327    0.876630
S      4.869515   -1.396043    0.902232
C      3.610489   -0.464514    0.147757
C      2.246404   -0.847326   -0.035208
C      1.675035   -1.947109    0.329520
N      0.245115   -2.096173    0.008631
C     -0.235829   -1.929759   -1.356011
S      0.470593   -0.434478   -2.050551
C      1.434615    0.284025   -0.703159
C     -1.608580   -1.770678   -0.807233
N     -2.041193   -0.398618   -0.738759
C     -3.258713   -0.021217   -1.329320
O     -3.955753   -0.902523   -1.914096
C     -3.805024    1.354091   -1.323272
N     -2.937375    2.280935   -0.633551
C     -5.142146    1.420621   -0.665327
C     -6.300680    1.485278   -1.418260
C     -7.505428    1.544899   -0.762048
C     -7.599606    1.542626    0.596173
O     -8.792170    1.601328    1.302502
C     -6.438893    1.477810    1.354888
C     -5.224735    1.417665    0.708998
C     -1.076182   -2.370180    0.420861
O     -1.601117   -2.910921    1.431857
C      2.262757   -3.047517    1.073450
O      3.526713   -3.184565    1.548125
O      1.523251   -4.070765    1.355599
N      6.881568    0.389826    1.779242
N      7.988855    0.959920    1.584885
H     10.104190    2.299060    0.532822
H     10.847215    0.654204    0.409881
H     10.037590    1.459298   -1.024849
H      4.021688   -0.010601   -0.856422
H      3.556866    0.544341    0.737204
H     -0.168107   -2.833817   -1.999954
H      0.824218    0.776216    0.053535
H      2.150328    0.981953   -1.174477
H     -2.348683   -2.438372   -1.330519
H     -1.467895    0.316473   -0.256464
H     -3.900594    1.750843   -2.375964
H     -2.606143    1.930551    0.289132
H     -2.155569    2.624821   -1.248287
H     -6.208078    1.486131   -2.497538
H     -8.421097    1.595877   -1.333121
H     -9.238896    0.743037    1.535229
H     -6.482499    1.474314    2.446741
H     -4.301557    1.366298    1.284079
H      3.806424   -3.828625    2.291673
