49

N     -2.653692    0.598522    1.972726
C     -3.305969   -0.577962    1.426108
C     -2.407326   -1.421895    0.645318
O     -2.796711   -2.503738    0.136491
N     -1.027137   -1.095535    0.395710
C     -0.144939   -1.930632   -0.374455
C      0.657433   -1.239950   -1.439118
S      0.394892    0.554225   -1.543017
C      1.955483    1.238616   -2.047084
C      3.127841    0.412258   -1.530756
C      3.046764   -0.724826   -0.907626
N      1.796164   -1.379597   -0.578169
C      1.113067   -2.187464    0.347174
O      1.389682   -2.877025    1.385969
C      4.218515   -1.606911   -0.697768
O      5.465708   -1.411366   -1.205239
O      4.095862   -2.646184    0.013426
C      4.414731    1.199974   -1.575907
S      5.757210    0.732427   -0.561772
C      5.425605    0.939870    1.178363
C      6.201476    0.696249    2.275709
N      5.457935    1.027561    3.348125
N      4.275040    1.458680    2.972009
N      4.254187    1.406014    1.656976
C     -4.493073   -0.080216    0.685630
C     -5.259446    0.868295    1.355319
C     -6.390584    1.436852    0.814351
C     -6.772025    1.039652   -0.451542
O     -7.916867    1.593803   -1.038382
C     -6.010790    0.099734   -1.112494
C     -4.869642   -0.470658   -0.560764
H     -2.132036    1.149253    1.285497
H     -2.117645    0.362100    2.814560
H     -3.694513   -1.144663    2.300061
H     -0.677801   -0.203931    0.805805
H     -0.577595   -2.858835   -0.768858
H      0.741014   -1.767405   -2.386312
H      2.111103    2.283563   -1.669112
H      2.095744    1.263219   -3.154860
H      6.081398   -2.123485   -1.563889
H      4.735043    1.067223   -2.665430
H      4.170996    2.301589   -1.529673
H      7.206331    0.313621    2.234362
H      3.460707    1.793468    3.534548
H     -4.973552    1.196217    2.360726
H     -6.970602    2.180031    1.367824
H     -7.859588    2.441582   -1.606537
H     -6.319093   -0.203344   -2.102544
H     -4.279308   -1.198974   -1.075098
