48

C      7.727303   -2.540047    3.067247
C      6.445175   -2.379556    2.290240
S      5.014527   -1.500573    2.659529
C      4.124091   -1.879789    1.252520
S      2.476543   -1.414244    0.711233
C      2.663826    0.134803   -0.232528
C      1.367380    0.618016   -0.732471
C      1.087093    0.754496   -2.025801
N     -0.210729    1.245764   -2.434545
C     -0.690110    2.503154   -1.892796
S     -0.399297    2.531743   -0.137011
C      0.295712    0.925310    0.317426
C     -2.053714    2.032660   -2.360316
N     -2.904424    1.465411   -1.357108
C     -4.237084    1.856812   -1.171454
O     -4.702510    2.751055   -1.926847
C     -5.152646    1.298477   -0.148308
N     -4.543000    0.293338    0.664556
C     -3.919704    0.665350    1.795929
C     -3.317416   -0.297362    2.604753
Cl    -2.492743    0.156245    4.093480
C     -3.345077   -1.636280    2.270091
O     -2.801930   -2.504859    2.999414
C     -3.988723   -1.989713    1.108396
C     -4.571209   -1.007525    0.337158
Cl    -4.026658   -3.683910    0.679681
C     -1.373777    1.046964   -3.214941
O     -1.671981    0.341509   -4.194165
C      2.015726    0.358197   -3.070868
O      1.639883    0.534607   -4.430088
O      3.132719   -0.133646   -2.852448
N      4.988970   -2.650373    0.606595
N      6.120926   -2.896551    1.108345
H      7.456075   -2.372362    4.125673
H      8.099080   -3.544821    2.853028
H      8.460996   -1.745959    2.775613
H      3.032936    0.880590    0.572277
H      3.477038    0.040558   -0.909205
H     -0.333003    3.425862   -2.393571
H      0.835412    1.002368    1.276629
H     -0.452236    0.114653    0.316445
H     -2.515350    2.818420   -2.996428
H     -2.517953    0.727355   -0.735037
H     -6.066565    0.918667   -0.672213
H     -5.526336    2.166036    0.466843
H     -3.843687    1.686327    2.143709
H     -5.068518   -1.318179   -0.568508
H      2.264968    0.201003   -5.137587
