49

C      8.051812    2.847084    3.231267
C      7.213837    2.051458    2.274592
S      6.133955    0.741180    2.564023
C      5.643571    0.473139    0.948889
S      4.492732   -0.737850    0.267077
C      2.895749   -0.054249    0.263669
C      1.687563   -0.678340   -0.193780
C      1.440408   -1.867372   -0.688266
N      0.116434   -2.285218   -1.102389
C     -0.611862   -1.517279   -2.105066
S     -0.440553    0.214987   -1.626136
C      0.388401    0.169203   -0.017945
C     -1.829685   -2.240269   -1.580599
N     -2.720294   -1.514646   -0.741460
C     -4.115074   -1.496166   -1.114094
O     -4.483474   -2.110542   -2.146891
C     -5.122853   -0.778903   -0.321229
O     -6.380090   -0.923490   -0.900502
C     -4.805693    0.650484   -0.136770
C     -4.259380    1.114954    1.038394
C     -3.957333    2.463734    1.221284
C     -4.200218    3.384789    0.216760
C     -4.745574    2.921213   -0.956374
C     -5.039173    1.585420   -1.123574
C     -0.921671   -3.215569   -0.962600
O     -1.048941   -4.373973   -0.513694
C      2.463991   -2.897220   -0.782516
O      2.209866   -4.183663   -1.308601
O      3.626872   -2.740675   -0.415159
N      6.342684    1.405820    0.310620
N      7.106596    2.173683    0.955383
H      8.356321    2.203251    4.076575
H      8.933198    3.186792    2.683411
H      7.455664    3.726177    3.549472
H      3.002638    1.005677   -0.196154
H      2.624206    0.297224    1.353025
H     -0.357759   -1.737406   -3.155277
H      0.697935    1.145712    0.329094
H     -0.246733   -0.356614    0.715148
H     -2.341093   -2.734631   -2.457842
H     -2.459650   -0.997512    0.115075
H     -5.188371   -1.316985    0.664957
H     -6.410638   -0.615944   -1.835955
H     -4.061279    0.416448    1.835136
H     -3.528216    2.842817    2.138276
H     -3.961426    4.433678    0.368794
H     -4.940398    3.621705   -1.745717
H     -5.473114    1.252454   -2.072373
H      2.766114   -4.954567   -0.919962
