42

C     -4.583584   -0.527327    3.578138
O     -3.501100   -0.302524    2.718687
C     -3.832208   -0.700396    1.407870
C     -2.717914   -0.477379    0.482941
C     -2.818623    0.321636   -0.565241
N     -1.684309    0.494894   -1.449110
C     -1.013318   -0.654607   -2.014115
S     -0.784426   -1.887564   -0.759620
C     -1.390711   -1.172757    0.788770
C      0.120618    0.298704   -2.266926
N      1.226424    0.228928   -1.328478
C      2.579407    0.060341   -1.689139
O      2.690246   -0.008671   -2.993428
C      3.767341   -0.045826   -0.945640
N      4.885852   -0.147955   -1.662265
O      4.838471   -0.145893   -3.018770
C      3.949541   -0.037728    0.540058
C      2.936972   -0.160665    1.436265
S      3.784367   -0.000958    2.947773
C      5.351028    0.206565    2.326411
N      6.604408    0.403653    3.039610
N      5.153579    0.145997    1.040366
C     -0.815916    1.405471   -2.101173
O     -0.850777    2.610657   -2.394830
C     -3.990853    1.122493   -0.873383
O     -5.134779    1.152237   -0.121478
O     -3.995036    1.872678   -1.917318
H     -5.422378    0.098739    3.154595
H     -4.389620   -0.108209    4.585353
H     -4.933103   -1.564417    3.575621
H     -4.004065   -1.838533    1.509515
H     -4.793130   -0.324022    1.152588
H     -1.494768   -1.006931   -2.970405
H     -0.705467   -0.401919    1.196894
H     -1.580202   -1.914594    1.558699
H      0.489269    0.200602   -3.302501
H      0.977711    0.336304   -0.346302
H      5.217677    0.619693   -3.529869
H      1.859605   -0.341358    1.332810
H      6.766786    1.366076    3.391538
H      7.292311   -0.332841    3.197051
H     -6.055327    1.157407   -0.541103
