50

C      2.131399   -0.638774    3.089824
O      2.852181    0.251139    2.234690
N      4.055689   -0.039593    1.692012
C      4.389132    0.025807    0.455237
C      3.444674    0.446375   -0.550978
O      3.803664    0.503528   -1.782505
N      2.109914    0.823103   -0.353949
C      1.251911    1.229878   -1.447593
C     -0.035535    0.518747   -1.543329
S     -0.437889   -0.550043   -0.103061
C     -2.247039   -0.587859   -0.141319
C     -2.806242    0.755506   -0.455543
C     -2.102396    1.767122   -0.927058
N     -0.695942    1.755959   -1.200245
C      0.512887    2.470456   -1.292186
O      0.855028    3.679885   -1.258737
C     -2.745341    3.037251   -1.357660
O     -4.099246    3.174626   -1.321524
O     -2.085735    4.014214   -1.762142
C     -4.246478    0.990105   -0.039860
S     -5.429025    0.160319   -1.033710
C     -5.459987   -1.576308   -0.853868
N     -4.800730   -2.504515   -1.543829
N     -5.118179   -3.697936   -1.078142
N     -5.970660   -3.556465   -0.099896
N     -6.200774   -2.270385    0.062596
C     -7.088480   -1.642636    1.041499
C      5.789893   -0.341452    0.047631
C      6.265411   -0.317947   -1.235268
S      7.900991   -0.835997   -1.006155
C      7.861271   -1.041931    0.683135
N      8.927122   -1.471827    1.550019
N      6.632089   -0.712740    0.976530
H      1.287167   -0.041011    3.512705
H      1.764518   -1.526147    2.521379
H      2.789796   -0.931157    3.932240
H      1.694104    0.822833    0.580439
H      1.767516    1.217045   -2.452807
H     -0.334185    0.100795   -2.506529
H     -2.510083   -1.304308   -0.962845
H     -2.680472   -0.957794    0.812991
H     -4.607022    3.980624   -1.708283
H     -4.493884    2.010482    0.218427
H     -4.294969    0.493388    1.047870
H     -7.849372   -1.077475    0.438418
H     -6.520834   -0.901463    1.605593
H     -7.570765   -2.422673    1.640187
H      5.784502   -0.051539   -2.189708
H      9.823406   -1.705404    1.127007
H      8.737000   -1.523806    2.553337
