54

C      3.199047    0.419644   -2.475298
O      2.058157   -0.338144   -2.451343
C      1.104081    0.059205   -1.516200
N      1.545948    0.047314   -0.152874
C      1.672739   -1.095945    0.667963
O      1.354440   -2.208123    0.123674
C      2.138904   -1.084840    2.081965
S      2.719250    0.499509    2.658131
C      4.245836    1.038552    1.887734
C      5.439829    0.200623    2.235127
N      5.722700    0.187801    3.662206
C      5.392619   -1.179159    1.686397
O      5.107948   -1.449428    0.357627
O      5.616821   -2.161509    2.437895
C     -0.266587   -0.464611   -1.823634
S     -1.207501   -1.214993   -0.513018
C     -2.562464   -0.107542   -0.073815
C     -3.032196    0.682210   -1.239408
C     -2.168252    1.165278   -2.147624
N     -0.764630    0.897943   -1.995341
C      0.551358    1.397686   -1.922872
O      1.147069    2.508070   -2.105049
C     -2.529882    2.052397   -3.225608
O     -1.584881    2.519047   -4.170340
O     -3.670273    2.483310   -3.421875
C     -4.495117    0.820733   -1.442063
S     -5.347399   -0.745784   -1.335333
C     -5.758919   -1.354094    0.248579
N     -6.220447   -2.644758    0.437766
N     -6.515287   -2.797227    1.700249
N     -6.277546   -1.695230    2.343542
N     -5.818075   -0.815975    1.454610
C     -5.502774    0.544463    1.810983
H      3.749823    0.427532   -1.507749
H      3.095399    1.454356   -2.804563
H      3.879389   -0.069975   -3.232373
H      1.803685    0.972105    0.306548
H      2.899574   -1.887123    2.213176
H      1.297831   -1.392960    2.775050
H      4.501839    2.085594    2.145867
H      4.127246    0.998067    0.790111
H      6.329585    0.695999    1.772085
H      6.731993   -0.072391    3.822443
H      5.582665    1.170446    3.998003
H      4.626581   -2.347537    0.162535
H     -0.255130   -1.042525   -2.792899
H     -2.266200    0.561763    0.770707
H     -3.410975   -0.767535    0.234487
H     -1.898019    2.725748   -5.121925
H     -4.772345    1.223074   -2.454728
H     -4.893387    1.586103   -0.727589
H     -4.444028    0.713725    1.796908
H     -6.123846    1.248527    1.202388
H     -5.856197    0.764914    2.868765
