57

C     -7.337835    1.366437    1.259127
N     -6.593485    1.471539    0.008434
C     -7.508601    2.054006   -0.969564
C     -6.251834    0.142990   -0.487713
C     -5.228285   -0.515728    0.439585
N     -4.064550    0.378253    0.416981
N     -3.865520    1.401139    1.247627
N     -2.712082    1.981327    0.933551
N     -2.209273    1.315039   -0.084463
C     -3.031536    0.302709   -0.434756
S     -2.800084   -0.876615   -1.741822
C     -1.907568   -2.348688   -1.080371
C     -0.571451   -1.857978   -0.692839
C     -0.102112   -1.916373    0.545784
N      1.214242   -1.408225    0.847132
C      1.552631   -0.052603    0.454636
S      1.139413    0.157829   -1.277377
C      0.290179   -1.322810   -1.830236
C      2.979212   -0.436128    0.777232
N      3.840478   -0.553768   -0.355961
C      5.018190    0.233230   -0.418429
O      5.260445    1.016414    0.539570
C      5.954796    0.158694   -1.562832
C      7.104678    1.126104   -1.345264
C      7.028378    2.402733   -1.845363
S      8.523547    3.053286   -1.331983
C      9.144095    1.677653   -0.523661
N     10.396277    1.508507    0.168215
N      8.168601    0.797062   -0.693607
C      2.482691   -1.652125    1.420234
O      2.987290   -2.530465    2.165224
C     -0.852140   -2.516967    1.655068
O     -0.306548   -2.574097    2.962329
O     -1.992376   -3.020642    1.592019
H     -8.028464    2.242361    1.313194
H     -6.696970    1.312539    2.149961
H     -7.974970    0.454341    1.143417
H     -8.211273    2.717259   -0.433800
H     -6.969695    2.688249   -1.710591
H     -8.041237    1.237932   -1.514149
H     -5.720978    0.295349   -1.447487
H     -7.132021   -0.502228   -0.605942
H     -4.937368   -1.503171    0.051049
H     -5.601723   -0.576802    1.469071
H     -1.738911   -3.058976   -1.957784
H     -2.490622   -2.873039   -0.359239
H      1.147100    0.762005    1.100658
H      0.984017   -2.136563   -2.171529
H     -0.379795   -1.022744   -2.664061
H      3.360633    0.276401    1.572803
H      3.593559   -1.213119   -1.119456
H      6.367443   -0.877790   -1.677789
H      5.414957    0.400044   -2.476371
H      6.198422    2.849779   -2.423379
H     11.100549    0.831710   -0.158340
H     10.580087    2.081712    1.005911
H     -0.572603   -3.346988    3.557249
