66

C     10.320834   -0.401886    2.226528
N     10.002910    1.006884    2.115435
N     10.759456    2.027999    2.394331
N     10.065522    3.139280    2.145089
N      8.853565    2.830422    1.702647
C      8.822955    1.488253    1.687233
S      7.430310    0.508551    1.178383
C      6.108116    1.516903    0.693891
C      4.802210    1.127296    0.231460
C      4.254442   -0.026086    0.021525
N      2.911323   -0.259444   -0.444854
C      1.893578    0.748874   -0.685941
S      2.283053    2.076589    0.486586
C      3.971446    2.390729   -0.061816
C      0.846828   -0.239469   -0.295811
N     -0.331968   -0.132686   -1.106624
C     -1.612468   -0.194418   -0.483619
O     -1.671411   -0.340955    0.761389
C     -2.874201   -0.091203   -1.250153
N     -4.005967   -0.164101   -0.345019
C     -4.914991    0.905735   -0.166377
O     -4.691123    1.954051   -0.849254
C     -6.064415    0.886731    0.727537
C     -6.849828   -0.224596    0.941684
N     -7.920319   -0.212069    1.784774
C     -8.258087    0.894937    2.448858
C     -7.519903    2.034964    2.281976
C     -6.421614    2.037331    1.422636
O     -5.731863    3.075364    1.256248
C     -9.416129    0.887642    3.352959
C     -2.972169   -1.127661   -2.308479
C     -2.737427   -0.884414   -3.638624
C     -2.839724   -1.879177   -4.587137
C     -3.184228   -3.172999   -4.242209
O     -3.287147   -4.175424   -5.199267
C     -3.420291   -3.417207   -2.904489
C     -3.319075   -2.423873   -1.953211
C      1.916319   -1.161702   -0.827436
O      1.859024   -2.273185   -1.377658
C      5.011345   -1.255203    0.222732
O      6.290003   -1.357830    0.609305
O      4.431050   -2.399617    0.020233
H     10.356674   -0.861349    1.215311
H     11.270203   -0.569292    2.773348
H      9.502466   -0.944668    2.774027
H      6.465563    2.299262   -0.120591
H      5.930182    2.306399    1.548109
H      1.828946    1.078608   -1.733846
H      4.006756    2.505661   -1.153986
H      4.401042    3.265073    0.429158
H      0.694472   -0.409313    0.770286
H     -0.334638   -0.010368   -2.135042
H     -2.834901    0.891338   -1.775631
H     -4.157449   -1.035877    0.194923
H     -6.602029   -1.131349    0.421481
H     -8.507875   -1.063569    1.937422
H     -7.758645    2.966144    2.804607
H    -10.137312    0.119795    2.977273
H     -9.867831    1.900173    3.362252
H     -9.044523    0.578157    4.368936
H     -2.465309    0.142904   -3.906343
H     -2.650418   -1.667338   -5.639708
H     -2.463902   -4.744625   -5.437082
H     -3.694075   -4.443858   -2.631475
H     -3.513347   -2.647057   -0.893910
H      6.786008   -2.248177    0.516667
