44

C      6.700031    0.846653    0.780694
O      6.041863   -0.196191    0.091086
C      4.698890   -0.494198    0.289789
C      3.876614   -0.140935   -0.665654
N      2.497342   -0.391964   -0.570212
C      1.814871   -0.975636    0.568475
S      2.737301   -0.673317    2.088838
C      4.396285   -1.166701    1.549173
C      0.703651   -0.054413    0.226206
N     -0.632182   -0.515053    0.407433
C     -1.713296    0.260840    0.916597
O     -1.440804    1.448307    1.224703
C     -3.072635   -0.213268    1.099325
N     -3.897856    0.847347    1.635839
C     -3.725854   -0.799178   -0.107496
C     -3.785018    0.221521   -1.182619
C     -4.842916    0.977673   -1.398759
C     -6.045933    0.825922   -0.545485
C     -6.150808   -0.521217    0.052640
C     -5.088332   -1.278497    0.258872
C      1.231873   -0.328859   -1.157139
O      0.718992   -0.439662   -2.291412
C      4.449310    0.534789   -1.859322
O      5.787792    0.794757   -1.988145
O      3.677128    0.871195   -2.766013
H      7.753700    0.864680    0.435443
H      6.264856    1.839061    0.518508
H      6.645262    0.718656    1.874532
H      1.530805   -2.040949    0.385984
H      5.088551   -0.821206    2.362969
H      4.472118   -2.264839    1.402379
H      0.917254    0.989193    0.503355
H     -0.860450   -1.499752    0.152503
H     -3.046882   -1.006448    1.902300
H     -3.696059    1.728082    1.100896
H     -3.689065    0.930875    2.651811
H     -3.194045   -1.671454   -0.526906
H     -2.930913    0.388235   -1.852628
H     -4.857299    1.708370   -2.184388
H     -6.926657    0.920981   -1.245971
H     -6.170413    1.619338    0.200017
H     -7.120192   -0.931443    0.343452
H     -5.230811   -2.280235    0.710765
H      6.113927    1.368938   -2.755446
