49

C     -6.656151   -1.193259   -1.000092
O     -5.354452   -0.784556   -1.405197
N     -4.793283    0.373365   -0.959518
C     -3.532850    0.401936   -0.538936
C     -2.818830   -0.815956   -0.579179
O     -3.504375   -1.841006   -1.034580
N     -1.522738   -1.194479   -0.239833
C     -1.006480   -2.549974   -0.375612
C      0.263339   -2.604067   -1.182567
S      0.761816   -1.103887   -1.998617
C      1.867176   -0.232020   -0.872543
C      2.815232   -1.237788   -0.224083
C      2.339847   -2.385590    0.225230
N      0.932832   -2.689269    0.093912
C     -0.249349   -3.093247    0.744151
O     -0.548435   -3.668668    1.814545
C      3.125301   -3.378691    0.932582
O      2.601114   -4.588363    1.394923
O      4.328646   -3.209046    1.174881
C      4.243286   -0.901484   -0.167395
N      4.480060    0.279448    0.666104
N      4.725193    0.343906    1.957741
N      4.875121    1.587563    2.314688
C      4.722311    2.334061    1.226614
C      4.805757    3.826080    1.137516
N      4.477019    1.509475    0.207465
C     -3.088508    1.751229   -0.089087
C     -1.838791    2.054916    0.395747
S     -1.990177    3.756343    0.723261
C     -3.596172    3.961792    0.232626
N     -4.405406    5.169576    0.230750
N     -3.927416    2.761000   -0.144820
H     -7.245035   -1.309992   -1.940095
H     -6.608705   -2.176430   -0.519731
H     -7.114656   -0.423048   -0.346830
H     -0.869377   -0.511460    0.128217
H     -1.737031   -3.283499   -0.770057
H      0.319688   -3.520422   -1.817096
H      2.512477    0.410383   -1.500729
H      1.351171    0.342547   -0.083916
H      3.046633   -5.035608    2.160249
H      4.961505   -1.658163    0.093718
H      4.559465   -0.595594   -1.248417
H      5.150629    4.093883    0.113033
H      5.572367    4.150489    1.876875
H      3.842914    4.306689    1.357456
H     -0.952309    1.453568    0.558759
H     -4.250319    5.803733   -0.556029
H     -5.070054    5.313584    1.000297
