57

C      6.248652    4.497290   -2.143294
O      6.482458    3.618440   -1.046971
N      6.324374    2.277718   -1.292051
C      5.276831    1.654284   -0.849835
C      4.321471    2.433548   -0.109509
O      4.506853    3.687289    0.094371
N      3.126769    1.907538    0.445362
C      2.200657    2.765114    1.186696
C      0.790972    2.598720    0.772014
S      0.444210    1.923334   -0.849855
C      0.236316    0.137461   -0.668878
C     -0.587153   -0.140580    0.569422
C     -0.360595    0.522478    1.683614
N      0.684462    1.551143    1.766825
C      1.791599    2.108070    2.439692
O      2.191124    2.023297    3.633563
C     -1.096925    0.240607    2.900049
O     -2.082564   -0.678683    3.117898
O     -0.827421    0.924366    3.972935
C     -1.641105   -1.128209    0.485181
C     -1.877279   -1.821075   -0.611199
S     -3.228867   -3.047811   -0.636438
C     -4.680591   -2.181096   -0.032790
N     -4.661020   -0.887502    0.334409
N     -5.722344   -0.237337    0.781257
C     -6.910506   -0.867109    0.891208
O     -7.931962   -0.280092    1.310065
C     -6.986679   -2.192151    0.528935
O     -8.075378   -2.818596    0.615544
N     -5.875485   -2.816322    0.077294
C     -5.913314   -4.216211   -0.315319
C     -6.243440   -4.384254   -1.751488
O     -6.456158   -3.467289   -2.517459
C      5.171328    0.208582   -1.155006
C      6.156888   -0.453640   -1.885538
S      5.549461   -2.042970   -1.942040
C      4.108845   -1.807622   -1.060104
N      3.077854   -2.760524   -0.712665
N      4.174816   -0.526884   -0.772805
H      7.151150    4.435017   -2.778472
H      6.095930    5.503507   -1.732307
H      5.362240    4.118994   -2.690678
H      2.914961    0.906418    0.329010
H      2.572344    3.808125    1.285151
H      0.138769    3.479609    1.054763
H      1.207132   -0.394886   -0.600944
H     -0.345885   -0.219353   -1.563848
H     -2.134321   -1.313094    3.918961
H     -2.297525   -1.352549    1.296101
H     -1.313608   -1.718691   -1.496241
H     -5.694450    0.763831    1.062240
H     -4.937960   -4.661388   -0.046112
H     -6.673688   -4.712543    0.329758
H     -6.296283   -5.389046   -2.133498
H      7.086612   -0.028933   -2.308431
H      2.426598   -2.515250    0.048106
H      3.030827   -3.633184   -1.226644
