48

C     -6.100270    1.184609   -3.205126
O     -5.207288    0.186796   -2.721613
N     -5.173041   -0.039758   -1.373247
C     -4.035730   -0.259056   -0.708454
C     -2.875558   -0.234887   -1.525595
O     -3.020683   -0.054048   -2.823602
N     -1.512072   -0.370580   -1.198604
C     -0.477718   -0.321817   -2.205693
C      0.712064    0.523148   -1.974057
N      1.475835   -0.577602   -1.418558
C      0.530101   -1.416083   -2.019121
O      0.459907   -2.625184   -2.325442
C      2.669583   -0.432502   -0.607139
C      3.106058    0.712307   -0.190500
C      4.275634    0.970320    0.619338
O      5.116657    0.005631    1.078165
C      6.254138    0.267385    1.867351
C      7.122874   -0.839783    2.329382
O      6.469882    1.474911    2.141672
C      2.423843    2.047506   -0.521688
S      0.663698    1.730562   -0.642518
O      0.265653    1.003836    0.633269
C      3.339049   -1.684166   -0.305135
O      4.461666   -1.894626    0.412201
O      2.823448   -2.776203   -0.767477
C     -4.154679   -0.466057    0.757166
C     -3.160824   -0.908854    1.578616
S     -3.927403   -0.850058    3.133454
C     -5.446038   -0.273760    2.639104
N     -6.614385    0.017822    3.438638
N     -5.296799   -0.158463    1.356130
H     -6.888644    1.410469   -2.441235
H     -6.651473    0.835685   -4.100542
H     -5.580745    2.135674   -3.407681
H     -1.205257   -0.494803   -0.237830
H     -0.850724   -0.262016   -3.272236
H      1.152987    0.986916   -2.881956
H      4.881705    1.853337    0.181071
H      3.888696    1.507419    1.577528
H      8.144681   -0.397595    2.465673
H      7.174298   -1.667989    1.605124
H      6.835241   -1.212215    3.343229
H      2.783427    2.390952   -1.512188
H      2.565095    2.775627    0.271917
H      4.764853   -2.756755    0.833486
H     -2.138071   -1.253840    1.380881
H     -6.752148    0.947195    3.836776
H     -7.291521   -0.739406    3.587558
