46

C     -5.874452   -2.985696    1.076320
O     -5.481198   -2.287447   -0.085603
N     -5.390347   -0.929944   -0.160429
C     -4.210054   -0.297079   -0.069697
C     -3.072251   -1.123872    0.107582
O     -3.317908   -2.414663    0.160870
N     -1.705665   -0.791322    0.237917
C     -0.736990   -1.855562    0.411249
C      0.434852   -1.818513   -0.539032
S      0.338353   -0.617968   -1.857815
C      1.179302    0.858031   -1.244087
C      2.479960    0.455942   -0.549009
C      2.437129   -0.553153    0.303899
N      1.185656   -1.246087    0.547745
C      0.221745   -1.692856    1.494584
O      0.201254   -1.872534    2.736204
C      3.575325   -0.982989    1.088725
O      3.440344   -2.062032    1.972979
O      4.712958   -0.493381    1.080277
C      3.621475    1.239072   -0.954675
O      4.881289    1.032325   -0.491097
C      5.992742    1.766955   -0.865215
C      7.325031    1.458161   -0.297674
O      5.879322    2.709695   -1.696377
C     -4.286320    1.147027   -0.168418
O     -5.446710    1.798395   -0.336500
C     -5.310536    3.057954   -0.400383
C     -3.994460    3.364869   -0.275193
C     -3.353081    2.127778   -0.127406
H     -5.637982   -2.412403    2.000740
H     -6.973989   -3.172949    0.968093
H     -5.382143   -3.984453    1.077658
H     -1.438972    0.196658    0.206623
H     -1.192302   -2.843888    0.430044
H      0.735278   -2.847660   -0.851036
H      0.532708    1.355955   -0.485039
H      1.382518    1.577683   -2.032449
H      4.275711   -2.611629    2.204789
H      3.686104    1.222483   -2.100520
H      3.346146    2.343722   -0.790520
H      7.472725    2.075762    0.609405
H      8.143173    1.576934   -1.034461
H      7.311405    0.403014    0.047560
H     -6.162442    3.743506   -0.536753
H     -3.532601    4.339185   -0.285489
H     -2.292101    2.046975   -0.006036
