41

C     -3.961881   -1.722028   -0.645877
N     -2.850093   -0.819564   -0.424437
C     -1.612388   -0.873632   -0.899701
C     -0.918706   -1.852061   -1.799571
C      0.424534   -2.074556   -1.176354
C      1.288498   -0.843952   -1.203370
C      2.467387   -1.150282   -0.308814
N      3.424007   -0.107912   -0.176205
C      4.483632    0.163270   -0.957095
C      5.134832    1.272986   -0.470409
N      4.457757    1.659227    0.602395
C      3.416754    0.822828    0.785899
C      2.449953    0.976980    1.933898
C      0.525531    0.342705   -0.840402
O      0.988599    1.516706   -0.863223
C     -0.864443    0.220761   -0.419097
C     -1.714888    0.949996    0.379651
C     -1.515579    2.105812    1.096958
C     -2.569458    2.614664    1.817316
C     -3.812944    2.003429    1.841280
C     -3.960618    0.843654    1.102971
C     -2.943034    0.290180    0.365057
H     -4.817076   -1.126249   -1.038309
H     -4.271882   -2.131015    0.325915
H     -3.662766   -2.530213   -1.336929
H     -0.823831   -1.447802   -2.826591
H     -1.454039   -2.831560   -1.782922
H      0.958584   -2.952606   -1.616681
H      0.228147   -2.282680   -0.081902
H      1.650223   -0.772431   -2.282525
H      2.070980   -1.412686    0.696573
H      2.977257   -2.027580   -0.755511
H      4.791100   -0.405028   -1.846800
H      6.023982    1.733908   -0.886716
H      2.956615    0.753489    2.895726
H      2.013109    1.997981    1.946932
H      1.643649    0.222984    1.830585
H     -0.576363    2.631816    1.122682
H     -2.470756    3.531893    2.407634
H     -4.647125    2.390445    2.400715
H     -4.927262    0.318125    1.087253
