42

C     -4.969114    1.861903    1.928286
C     -4.522390    0.733877    1.051732
O     -4.207578    1.022570   -0.110524
O     -4.458313   -0.556478    1.493104
C     -4.023388   -1.599324    0.608996
C     -2.665079   -1.359708    0.114051
C     -2.348368   -1.220352   -1.161687
N     -0.964895   -0.992299   -1.543099
C      0.087856   -1.859961   -1.056230
S     -0.056784   -2.005497    0.723082
C     -1.615851   -1.238428    1.203142
C      1.034051   -0.777831   -1.539146
N      1.554991   -0.017430   -0.444297
C      2.935937    0.203916   -0.198416
O      3.775202   -0.286881   -0.974711
C      3.335580    1.022299    0.989457
C      4.841563    1.121840    1.047564
S      5.976173    0.113494    1.819610
C      7.409269    0.926824    1.391843
C      6.952665    1.981249    0.645111
C      5.629293    2.082576    0.467124
C     -0.071037   -0.180665   -2.290501
O     -0.148403    0.677083   -3.197474
C     -3.317058   -1.225982   -2.244172
O     -4.658205   -1.377864   -1.999034
O     -2.974600   -1.089880   -3.468075
H     -4.109050    2.252529    2.506948
H     -5.818573    1.554544    2.573522
H     -5.347983    2.718291    1.308694
H     -3.878320   -2.471922    1.368627
H     -4.778015   -1.974652   -0.050465
H      0.224164   -2.817501   -1.602240
H     -1.970224   -1.722235    2.114986
H     -1.516071   -0.149614    1.383428
H      1.829560   -1.192077   -2.199300
H      0.877986    0.407836    0.225377
H      2.976060    0.586721    1.935605
H      2.969144    2.053277    0.917611
H      8.459498    0.685687    1.641142
H      7.686139    2.708771    0.216941
H      5.169207    2.909585   -0.127023
H     -5.305037   -1.508291   -2.744437
