51

C     -3.340472    2.765568    1.201406
C     -3.813246    1.370443    1.388005
O     -4.636970    1.143904    2.312612
C     -3.361838    0.281705    0.551433
C     -2.501551    0.454527   -0.431509
O     -2.014341    1.735776   -0.666293
C     -2.068540   -0.686461   -1.260307
O     -2.952090   -0.952569   -2.307761
C     -1.903855   -1.972346   -0.478952
C     -0.721578   -1.995106    0.419251
C      0.355229   -1.052488    0.102376
C      1.424036   -1.017289    0.976445
C      1.488445   -1.900694    2.181411
C      2.465997   -0.135510    0.720685
C      3.533033   -0.100170    1.590812
C      4.575531    0.760940    1.360296
C      4.584100    1.594981    0.277243
C      5.703572    2.541759    0.000586
C      3.513449    1.593242   -0.639693
O      3.596747    2.447808   -1.686273
C      2.490103    0.713413   -0.367834
C      1.415308    0.674655   -1.241562
O      1.377161    1.487067   -2.331164
C      0.377152   -0.199665   -0.994121
C     -0.766203   -0.295796   -1.894221
O     -0.615192   -0.059964   -3.097639
C     -3.197596   -2.268097    0.204602
N     -3.084062   -3.284197    1.232701
C     -3.853587   -1.068296    0.773017
O     -4.874943   -1.225714    1.473886
H     -3.813516    3.444470    1.941804
H     -3.632986    3.171784    0.201642
H     -2.232356    2.860304    1.364421
H     -2.174527    2.213794   -1.564891
H     -2.480438   -1.512631   -2.980930
H     -1.763679   -2.770533   -1.262326
H     -0.264211   -3.027416    0.390997
H     -1.034268   -1.863576    1.499023
H      1.479622   -1.340923    3.121648
H      2.452784   -2.490152    2.168660
H      0.702873   -2.681089    2.144799
H      3.500526   -0.772693    2.443616
H      5.413892    0.775221    2.061596
H      5.426571    3.563121    0.372639
H      6.656078    2.191610    0.454703
H      5.817030    2.614950   -1.081516
H      3.102270    2.716084   -2.461902
H      0.723098    1.615459   -3.034271
H     -3.904290   -2.681148   -0.571407
H     -3.897153   -3.134762    1.894101
H     -3.271121   -4.243301    0.813192
