60

C      6.210718    1.433320    0.152431
C      6.062420   -0.019795    0.440508
C      4.979805   -0.755006   -0.213380
C      3.576633   -0.422367   -0.020616
C      3.084457    0.924287   -0.404352
C      1.777400    1.049841    0.357635
N      1.908435    0.249829    1.536992
C      2.115942    1.080626    2.734140
C      3.018588   -0.666091    1.357597
C      0.632805    0.604641   -0.499555
O      0.404717    1.223982   -1.581876
N     -0.193868   -0.469517   -0.150091
C     -1.346701   -0.920968   -1.007542
C     -0.846564   -2.314785   -1.406143
C     -1.701534   -3.105931   -2.301644
Cl    -0.428841   -3.229859    0.098076
C     -2.471023   -0.929404   -0.039023
O     -2.570737    0.350095    0.552774
C     -2.974459    1.339971   -0.294577
S     -3.073686    2.880311    0.680417
C     -4.386621    2.785899    1.927667
C     -4.353307    1.091910   -0.878200
O     -5.313194    1.095605    0.132126
C     -4.405433   -0.281461   -1.531915
O     -3.852663   -0.299269   -2.773694
C     -3.841297   -1.240153   -0.523395
O     -4.136364   -2.563519   -0.746878
H      7.317876    1.673213    0.272294
H      6.002649    1.735352   -0.887882
H      5.748198    2.101212    0.923279
H      6.120189   -0.139178    1.545781
H      7.025801   -0.519207    0.098734
H      5.125694   -1.855166    0.009645
H      5.184644   -0.713543   -1.328900
H      2.990356   -1.149141   -0.673459
H      2.792878    0.961471   -1.496692
H      3.731206    1.773257   -0.243444
H      1.630249    2.103508    0.616889
H      2.881336    1.879316    2.514654
H      1.168836    1.494614    3.112655
H      2.614438    0.407653    3.478434
H      2.605478   -1.690269    1.480939
H      3.723020   -0.502393    2.167759
H     -0.046950   -0.999213    0.713908
H     -1.372298   -0.214963   -1.822172
H      0.172521   -2.198402   -1.895460
H     -2.485464   -2.578591   -2.867140
H     -1.058489   -3.541486   -3.154731
H     -2.143368   -4.009272   -1.773904
H     -2.226674   -1.623219    0.778531
H     -2.264360    1.526178   -1.100075
H     -4.577309    1.740928    2.262368
H     -5.326606    3.274841    1.552811
H     -3.996926    3.332108    2.831920
H     -4.527327    1.867769   -1.650297
H     -6.068944    0.523618   -0.167485
H     -5.499454   -0.538072   -1.630732
H     -3.557459    0.603557   -3.052473
H     -4.495426   -1.007550    0.412440
H     -5.063943   -2.611120   -1.086233
