65

C     -6.718881    2.800456    1.008883
C     -6.081717    1.463657    1.324576
C     -4.692511    1.463853    0.694347
C     -4.050067    0.148667    0.998642
C     -2.665802    0.127006    0.379410
C     -2.737920   -0.978334   -0.656407
N     -3.703007   -1.897395   -0.115292
C     -3.170949   -2.535720    1.061508
C     -4.776906   -0.984389    0.266991
C     -1.416947   -1.627862   -0.833702
O     -1.211045   -2.817797   -0.549387
N     -0.313737   -0.899556   -1.345918
C      1.002129   -1.424232   -1.557549
C      1.449731   -1.570805   -2.948215
C      1.521383   -0.384611   -3.828840
Cl     3.112074   -2.276885   -2.917964
C      1.988080   -0.882719   -0.562721
O      3.237753   -1.362666   -0.784866
C      4.245765   -0.855153   -0.025367
S      4.619067   -2.004875    1.294016
C      3.362869   -2.247188    2.501489
C      4.113626    0.561507    0.381318
O      5.013138    0.912599    1.372834
P      6.107436    2.094458    0.890510
O      5.350614    3.322537    0.001028
O      7.412767    1.442986    0.032350
O      6.674114    2.727233    2.143088
C      2.732702    0.981505    0.762915
O      2.666360    2.332195    1.007066
C      1.850663    0.595863   -0.444102
O      2.174339    1.335416   -1.545651
H     -7.735745    2.636417    0.598497
H     -6.085842    3.409579    0.333492
H     -6.845604    3.374926    1.949250
H     -6.705348    0.655763    0.909433
H     -5.984907    1.316536    2.409494
H     -4.734332    1.626955   -0.385259
H     -4.097014    2.276167    1.146653
H     -4.007200   -0.058176    2.082432
H     -2.440490    1.113979   -0.108437
H     -1.866302   -0.076461    1.118818
H     -3.068504   -0.531329   -1.618017
H     -2.246256   -2.053605    1.393556
H     -2.917974   -3.605086    0.835240
H     -3.922302   -2.478045    1.881126
H     -5.530241   -1.469084    0.907503
H     -5.221212   -0.566881   -0.639170
H     -0.489563    0.114659   -1.588154
H      0.878160   -2.522783   -1.208357
H      0.848860   -2.415970   -3.415907
H      2.524499    0.080576   -3.926280
H      1.329661   -0.760051   -4.887729
H      0.787809    0.400974   -3.683649
H      1.721784   -1.266191    0.490773
H      5.160173   -0.889934   -0.704149
H      2.977166   -1.379029    3.021856
H      2.534404   -2.876755    2.061380
H      3.782847   -2.921383    3.305685
H      4.386394    1.203934   -0.510288
H      5.172137    3.039754   -0.936661
H      7.069235    1.123864   -0.857653
H      2.299109    0.437938    1.619639
H      1.764290    2.541929    1.395596
H      0.821661    0.832353   -0.134266
H      2.745524    2.124711   -1.344737
