45

C      1.553327    2.479102    1.721265
O      1.767452    1.537132    0.714025
C      2.436553    0.405747    1.240568
C      1.500691   -0.719595    1.079197
O      1.801525   -1.868245    1.556156
N      0.253693   -0.610208    0.411335
C     -0.593853   -1.738745    0.295933
C     -2.042266   -1.583327    0.451214
S     -2.705002   -0.176772    1.383755
C     -3.847237    0.221701   -0.015875
C     -4.892671   -0.871759   -0.006492
C     -4.421196    1.585569    0.135324
C     -2.860114    0.080942   -1.121034
N     -2.003568   -1.000928   -0.896538
C     -1.026433   -1.992532   -1.138395
O     -0.628824   -2.753809   -2.032860
C     -3.507235   -0.031042   -2.458815
O     -3.262463   -1.084234   -3.329924
O     -4.319441    0.845394   -2.859497
C      3.701381    0.182195    0.531910
C      4.130712   -1.018645    0.043596
C      5.350679   -1.165181   -0.619738
C      6.158573   -0.073782   -0.795669
Cl     7.710441   -0.176537   -1.620905
C      5.746623    1.141602   -0.313346
Cl     6.775241    2.561119   -0.530845
C      4.536532    1.264784    0.339793
H      0.922093    2.046927    2.545709
H      2.513296    2.724105    2.219303
H      1.046654    3.376489    1.322142
H      2.614343    0.611289    2.330792
H     -0.018620    0.303394    0.015104
H     -0.179407   -2.658755    0.766498
H     -2.588842   -2.520534    0.537623
H     -4.496294   -1.799885    0.473534
H     -5.765361   -0.568230    0.585625
H     -5.230401   -1.158825   -1.010806
H     -5.545714    1.495083    0.185566
H     -4.233869    2.220403   -0.760342
H     -4.129185    2.101418    1.068494
H     -2.331248    1.087514   -1.159912
H     -3.379241   -0.913018   -4.320425
H      3.538337   -1.907275    0.148217
H      5.669875   -2.131469   -0.998918
H      4.280462    2.251420    0.690115
