53

C     -2.356012    3.198006    0.118738
N     -3.126983    1.996513    0.190256
C     -3.591479    1.741468    1.517082
C     -2.496611    0.845325   -0.444822
C     -1.242617    0.519168    0.262044
C     -0.070390    0.935997   -0.612058
C      1.230470    0.884623    0.190727
C      2.291775    1.535006   -0.579021
O      1.872276    1.518747   -1.950440
C      3.596396    0.855789   -0.567503
C      4.728191    1.559234   -1.000603
C      5.917684    0.904084   -1.072235
C      6.066548   -0.420584   -0.739555
C      4.954895   -1.155668   -0.300309
O      5.187527   -2.446992    0.004986
C      3.754663   -0.458379   -0.236095
C      2.609712   -1.184136    0.323707
C      1.480796   -0.530363    0.495125
C      0.311685   -1.267324    1.035688
O      0.493179   -2.266725    1.807290
C     -1.087062   -0.899845    0.722731
O     -1.782861   -1.026360    1.952016
C     -1.691432   -1.890159   -0.176696
O     -1.113897   -2.958266   -0.428358
C     -2.985785   -1.598456   -0.771767
C     -3.712852   -2.504895   -1.402336
N     -4.969018   -2.139366   -1.957106
O     -3.213617   -3.793954   -1.498537
C     -3.456926   -0.236722   -0.640466
O     -4.678257    0.005897   -0.695229
O      2.702054   -2.525631    0.667539
H     -1.446895    3.090394    0.718342
H     -2.054731    3.443701   -0.921005
H     -2.930473    4.055714    0.532922
H     -2.777094    2.029014    2.236471
H     -3.910087    0.683113    1.672408
H     -4.460450    2.429819    1.699568
H     -2.241147    1.212724   -1.490685
H     -1.156470    1.160406    1.189351
H     -0.017363    0.220780   -1.435068
H     -0.189534    1.954854   -0.972488
H      0.994806    1.451455    1.155771
H      2.419688    2.630752   -0.313246
H      2.107930    0.661118   -2.360157
H      4.574784    2.596966   -1.253398
H      6.777369    1.504426   -1.419432
H      7.051512   -0.854684   -0.830334
H      4.735711   -3.226081    0.314304
H     -1.262199   -0.607306    2.685372
H     -5.769117   -2.058463   -1.280662
H     -5.048174   -1.972461   -2.967058
H     -3.355785   -4.405298   -0.702557
H      2.335668   -3.196973   -0.002795
