87

C      7.947454   -1.950126    1.446872
C      7.295818   -0.589669    1.339881
O      6.902599   -0.273469    0.076214
C      6.298328    0.934633   -0.124007
O      6.924904    1.783717   -1.014171
C      7.255177    2.967687   -0.398962
C      8.194850    2.875629    0.754847
C      4.854154    0.799695   -0.474221
O      4.184167    1.809043   -0.724570
O      4.289273   -0.441036   -0.511528
C      2.946967   -0.608450   -0.828479
C      2.567036   -0.150699   -2.174186
O      3.399061    0.255570   -2.933439
C      1.103525   -0.189928   -2.613497
O      1.160581    0.194578   -3.989147
C      0.384902    0.867629   -1.909347
C     -1.041404    0.653286   -1.484799
O     -1.161704    1.408193   -0.323144
C     -1.983834    2.493215   -0.363872
C     -1.145091    3.793467   -0.473974
C     -2.156846    4.840925   -0.954334
N     -2.641662    4.504822   -2.285625
C     -3.349378    4.886126   -0.033205
O     -4.564913    4.988633   -0.751818
C     -3.399512    3.797435    0.976911
C     -2.863152    4.283695    2.330391
O     -2.788787    2.626417    0.698151
C     -1.318845   -0.768629   -1.235706
C     -2.447324   -1.131554   -0.458700
O     -3.169133   -0.089383   -0.023714
C     -2.745770   -2.438910   -0.197894
C     -3.930659   -2.707808    0.601579
O     -4.687139   -1.822590    1.070752
C     -4.289296   -4.102512    0.895329
C     -5.431543   -4.352062    1.661920
O     -6.198844   -3.294911    2.129767
C     -7.353464   -3.569401    2.901007
C     -5.744196   -5.666678    1.919097
C     -4.950053   -6.685685    1.431119
C     -3.829870   -6.423464    0.678267
C     -3.496185   -5.106214    0.406979
C     -2.307024   -4.833998   -0.395646
O     -1.614795   -5.770652   -0.818269
C     -1.944653   -3.463018   -0.691581
C     -0.842750   -3.154755   -1.449605
O     -0.003987   -4.082213   -1.972885
C     -0.550203   -1.778067   -1.710695
C      0.615132   -1.563327   -2.570421
H      7.817234   -2.287062    2.499847
H      9.040713   -1.914541    1.252885
H      7.440933   -2.704735    0.809994
H      8.062665    0.136000    1.678165
H      6.457896   -0.506172    2.093338
H      6.264304    1.469908    0.875152
H      7.657900    3.705795   -1.146532
H      6.314193    3.430183   -0.012798
H      8.536455    3.929251    0.987789
H      7.762798    2.511015    1.698257
H      9.145076    2.332433    0.501365
H      2.722821   -1.704353   -0.679732
H      2.317352   -0.090534   -0.083975
H      1.519382    1.107788   -4.071378
H      0.377045    1.823974   -2.517629
H      0.969522    1.163378   -0.999235
H     -1.724658    1.007198   -2.287741
H     -2.532624    2.483817   -1.325258
H     -0.786405    4.120123    0.501690
H     -0.428493    3.664939   -1.271612
H     -1.681807    5.844628   -1.036687
H     -3.546678    4.016218   -2.199043
H     -2.679040    5.355826   -2.882316
H     -3.281561    5.856883    0.532009
H     -5.137851    5.713680   -0.418992
H     -4.489789    3.587386    1.171851
H     -1.922269    3.731782    2.600884
H     -2.567282    5.337263    2.220807
H     -3.567017    4.097045    3.145415
H     -3.949368    0.002105    0.503959
H     -8.033133   -2.682795    2.968508
H     -7.991139   -4.352516    2.393204
H     -7.134912   -3.944621    3.907438
H     -6.630174   -5.853789    2.515920
H     -5.238533   -7.710726    1.662924
H     -3.197521   -7.193070    0.289147
H     -0.004600   -5.031096   -1.931910
H      1.444899   -2.278555   -2.301519
H      0.301754   -1.929240   -3.603058
