81

C     -3.935396   -0.530945   -2.707050
N     -4.381444    0.373748   -1.708391
C     -4.271041   -0.107428   -0.347772
C     -5.119287   -1.326553   -0.084691
O     -6.090938   -1.114825    0.893871
C     -4.300837   -2.512104    0.349696
O     -5.023442   -3.672058    0.048476
C     -2.998331   -2.569411   -0.360813
C     -2.156502   -3.633028    0.368694
O     -2.885692   -4.806392    0.393242
O     -2.242040   -1.429790   -0.359219
C     -2.843605   -0.288424    0.081663
O     -2.128431    0.796772   -0.417462
C     -1.513719    1.531283    0.592737
C     -0.065643    1.755202    0.348958
O      0.176763    3.114988    0.545455
C     -0.944517    3.796704    0.154297
C     -0.910408    3.896792   -1.377095
C     -2.083095    2.924107    0.530396
O     -3.069232    3.030949   -0.476198
C     -2.757334    3.326991    1.817988
O     -1.941653    3.280673    2.918791
O      0.791768    1.091999    1.227727
C      1.726297    0.347043    0.514058
C      1.751108   -1.112615    0.875251
O      0.527843   -1.716012    0.971998
C      2.500076   -1.778312   -0.284210
O      2.309860   -3.130910   -0.347802
C      3.946780   -1.382101   -0.122764
N      4.626268   -1.884258   -1.309506
C      5.398547   -2.920195   -1.278739
N      5.568099   -3.567131   -0.026518
N      6.041143   -3.384390   -2.446459
C      4.199017    0.049895    0.131211
O      5.390867    0.197676    0.882406
C      3.133806    0.866824    0.743934
N      3.292133    2.226049    0.359899
C      4.135122    3.087453    0.668430
N      4.055845    4.392042    0.127532
N      5.191974    2.805721    1.560493
H     -4.089171   -0.036692   -3.693329
H     -4.482343   -1.470628   -2.663343
H     -2.857301   -0.770559   -2.660882
H     -5.248248    0.871803   -1.917408
H     -4.691576    0.701576    0.283376
H     -5.660781   -1.581394   -1.015747
H     -6.404942   -0.194998    0.936849
H     -4.106762   -2.502444    1.452186
H     -5.969866   -3.459408   -0.180174
H     -3.142563   -2.997922   -1.388168
H     -1.217267   -3.697868   -0.196276
H     -2.006166   -3.214126    1.390769
H     -3.167445   -5.048923   -0.520000
H     -2.729314   -0.257362    1.187314
H     -1.727118    1.079851    1.597534
H      0.177276    1.533805   -0.707134
H     -1.007255    4.819238    0.593709
H     -1.795292    4.387957   -1.777116
H     -0.806890    2.896563   -1.836636
H      0.043429    4.429352   -1.658859
H     -2.724386    2.566423   -1.265441
H     -3.588792    2.583516    1.977130
H     -3.261042    4.286646    1.651973
H     -1.013477    3.121104    2.632122
H      1.567189    0.430493   -0.585351
H      2.287099   -1.297352    1.833031
H      0.459533   -2.336908    1.748104
H      2.143334   -1.280858   -1.228842
H      1.649815   -3.388806   -1.014538
H      4.341407   -1.970056    0.731983
H      4.796396   -4.165658    0.313206
H      6.467632   -3.414728    0.507295
H      7.026103   -3.121533   -2.602395
H      5.511786   -3.973770   -3.114740
H      4.459159    0.514221   -0.868836
H      5.197104   -0.084431    1.810678
H      3.269386    0.830178    1.866358
H      4.071525    5.186491    0.832991
H      3.985769    4.612889   -0.873440
H      6.193334    2.793820    1.296553
H      4.949994    2.594469    2.553218
