54

C      5.628006   -4.244844    0.988730
N      4.347565   -4.040532    1.562407
C      3.641093   -2.884699    1.175232
C      3.176639   -2.859638   -0.251343
O      2.315837   -3.943840   -0.495123
C      2.398499   -1.617891   -0.493984
C      2.890933   -0.559825   -1.190538
C      2.097921    0.556358   -1.371206
C      0.813424    0.665057   -0.879320
O      0.019615    1.788483   -1.062825
C      0.072392    2.845564   -0.144263
O      0.869826    2.686311    0.817912
C     -0.756501    4.064591   -0.302213
C     -0.444179    4.991068    0.871929
C     -2.217534    3.699057   -0.330636
C     -0.409049    4.811944   -1.559717
C      0.324582   -0.409591   -0.176964
O     -0.967265   -0.361097    0.344284
C     -2.055138   -0.858598   -0.364856
O     -1.784391   -1.348148   -1.498420
C     -3.441891   -0.851557    0.101287
C     -3.637764   -1.600689    1.395102
C     -4.335910   -1.546013   -0.935011
C     -4.029307    0.531590    0.274249
C      1.106902   -1.553847    0.021479
H      6.015033   -5.229581    1.381493
H      5.605714   -4.380285   -0.121472
H      6.345744   -3.484745    1.310202
H      3.819849   -4.861037    1.858685
H      4.203484   -1.959104    1.409432
H      2.705920   -2.837177    1.807898
H      3.979207   -2.924198   -0.985427
H      1.911116   -4.260614    0.358198
H      3.905075   -0.621325   -1.588924
H      2.523343    1.378673   -1.930657
H     -0.521099    4.479133    1.835034
H     -1.201993    5.794680    0.827161
H      0.549088    5.466594    0.748147
H     -2.621061    3.785261    0.715559
H     -2.733957    4.410486   -1.007545
H     -2.269944    2.646803   -0.684575
H     -1.169759    4.557411   -2.335126
H     -0.437287    5.901669   -1.370384
H      0.592076    4.538173   -1.964199
H     -3.937706   -0.921025    2.221409
H     -2.714434   -2.133097    1.719110
H     -4.421142   -2.382094    1.321002
H     -5.369111   -1.215595   -0.738429
H     -4.059272   -1.256335   -1.963475
H     -4.307651   -2.649528   -0.793494
H     -5.110459    0.391725    0.567471
H     -3.558979    1.124867    1.061306
H     -4.055445    1.055603   -0.722484
H      0.709348   -2.374550    0.567891
