125

C     -4.600420   -7.968303   -0.988170
C     -4.394461   -6.962687   -2.103559
C     -3.757356   -5.742524   -1.550802
O     -3.493092   -5.664383   -0.340630
O     -3.456642   -4.690950   -2.384045
C     -2.860003   -3.495414   -1.984373
C     -1.491577   -3.400239   -2.569531
C     -1.459601   -3.355091   -4.076077
C     -0.665596   -2.277823   -1.957382
C     -0.211251   -2.818269   -0.591720
O      0.474290   -1.969917   -2.666277
C      0.851038   -1.002719   -3.509590
O      1.119112   -1.276610   -4.739675
C      1.026907    0.459721   -3.244683
C      0.035426    1.172543   -4.134371
C      0.938507    0.828832   -1.785340
O      2.195253    0.994317   -1.214234
C      2.631315    0.003927   -0.386186
C      3.898947   -0.539243   -1.016992
C      5.103587   -0.209094   -0.109583
O      6.306277   -0.460016   -0.702252
C      7.149647    0.648216   -0.720621
C      4.840814   -1.093441    1.115654
O      5.889610   -1.150215    2.017003
C      6.644133   -2.279367    2.272472
O      6.357186   -3.329184    1.636383
C      7.740062   -2.210108    3.263677
C      8.488726   -3.542051    3.331586
C      3.517445   -0.641954    1.649099
C      2.564402   -1.825519    1.694498
O      2.982161    0.422595    0.901364
C     -0.017391    1.953805   -1.525285
C      0.713431    3.269891   -1.294566
C     -1.005362    1.722260   -0.406697
O     -1.236991    2.954237    0.206007
C     -1.103724    2.937478    1.597089
O     -2.356426    3.281414    2.109036
C     -2.375015    3.311707    3.501893
C     -3.809749    3.280799    3.958245
C     -1.775360    4.701936    3.816555
C     -0.375197    4.648797    3.322895
C     -0.103371    3.943595    2.058108
O      1.187513    3.379875    2.147568
N      0.250741    5.964543    3.257612
C     -0.372114    6.862115    2.338159
C      0.423252    6.554852    4.553200
C     -2.369665    1.308412   -0.989311
C     -3.094334    2.582439   -1.335456
C     -3.081628    0.415995   -0.034301
C     -4.307270   -0.227627   -0.631462
C     -5.425228    0.450508   -1.153350
O     -5.537331   -0.063541    0.229548
C     -4.129154   -1.682937   -0.850542
O     -4.306200   -2.439588    0.090169
C     -3.743398   -2.306842   -2.149297
C     -5.035126   -2.788569   -2.795984
H     -4.671343   -8.975446   -1.415067
H     -3.728864   -7.835821   -0.307959
H     -5.543062   -7.714747   -0.472634
H     -3.698784   -7.456077   -2.846902
H     -5.314278   -6.717525   -2.623715
H     -2.701554   -3.600149   -0.865202
H     -0.962048   -4.334531   -2.284701
H     -0.479793   -3.787150   -4.395559
H     -2.233572   -4.020899   -4.481711
H     -1.527489   -2.318242   -4.465744
H     -1.320338   -1.421297   -1.880001
H     -0.751160   -3.722239   -0.289920
H     -0.274905   -2.012288    0.181113
H      0.860223   -3.106565   -0.637659
H      2.031000    0.804132   -3.591560
H      0.271285    0.782844   -5.171819
H     -1.001250    0.892377   -3.969885
H      0.221888    2.260614   -4.223852
H      0.543881   -0.086215   -1.308451
H      1.922155   -0.846694   -0.287353
H      3.870266   -1.636389   -1.185548
H      4.104173    0.034448   -1.940068
H      4.980840    0.834663    0.263496
H      8.094512    0.372090   -1.221528
H      7.407138    1.008333    0.296218
H      6.634143    1.436359   -1.303498
H      4.749933   -2.137206    0.673030
H      7.295431   -2.049699    4.292884
H      8.425989   -1.372772    3.081395
H      8.112046   -4.241761    2.543549
H      9.548533   -3.328592    3.022824
H      8.411382   -3.977633    4.333140
H      3.661652   -0.319792    2.691235
H      2.630673   -2.464550    0.817564
H      1.517292   -1.466846    1.767958
H      2.828957   -2.472589    2.568345
H     -0.659534    2.165426   -2.423164
H     -0.038036    4.031994   -1.045125
H      1.123232    3.593985   -2.301911
H      1.484425    3.221190   -0.534093
H     -0.711357    0.922870    0.301162
H     -0.798327    1.927114    1.961370
H     -1.769012    2.513469    3.970200
H     -4.468378    3.570062    3.096679
H     -4.123203    2.267618    4.242537
H     -4.021664    3.981653    4.793609
H     -1.795545    4.880190    4.891027
H     -2.440433    5.397309    3.258364
H      0.216549    4.117777    4.140478
H     -0.083469    4.740850    1.240586
H      1.714390    4.002771    2.705326
H     -0.105405    7.902146    2.690051
H     -1.456791    6.847466    2.287340
H      0.118709    6.792044    1.328877
H     -0.017798    5.874283    5.323814
H     -0.088995    7.558626    4.598158
H      1.522398    6.685704    4.717792
H     -2.262505    0.763311   -1.947528
H     -3.735363    2.497570   -2.235225
H     -3.689232    2.993739   -0.526557
H     -2.315198    3.361384   -1.596404
H     -3.321582    0.855420    0.933413
H     -2.366159   -0.425232    0.194781
H     -6.109517   -0.029426   -1.861163
H     -5.603809    1.538726   -1.075585
H     -3.278395   -1.486009   -2.746113
H     -5.764376   -3.133090   -2.022468
H     -4.899342   -3.606651   -3.507940
H     -5.550984   -1.967021   -3.340172
