111

C      0.283834    2.422386    1.553032
C     -0.845284    2.485798    0.583235
O     -1.284582    3.584033    0.202396
O     -1.401888    1.356308    0.104344
C     -2.451533    1.173997   -0.816349
C     -3.724201    1.796289   -0.329568
O     -3.394348    2.930827   -1.106137
C     -2.453864    2.198219   -1.864724
C     -3.077174    1.854776   -3.162130
C     -2.688324    0.497653   -3.550734
O     -3.236321    0.083939   -4.770971
C     -3.067294   -0.597578   -2.553510
C     -4.557409   -0.712638   -2.639561
C     -2.490777   -0.284282   -1.213020
C     -2.942698   -1.058072   -0.050016
O     -3.311787   -0.288902    1.091013
C     -4.554473   -0.345089    1.689046
O     -5.423871   -1.097534    1.209693
C     -4.902873    0.440074    2.868586
C     -6.136250    0.390539    3.459624
C     -6.454736    1.133898    4.594266
C     -5.509065    1.949711    5.152704
C     -4.234913    2.021884    4.572556
C     -3.952962    1.271692    3.446747
C     -2.101446   -2.172456    0.514020
O     -2.670501   -2.488193    1.748721
C     -0.659171   -1.992260    0.665869
C      0.270288   -2.640554   -0.296156
O      1.212204   -1.697204   -0.849387
C      2.575607   -1.925349   -0.806215
O      2.892726   -3.020498   -0.219385
C      3.635122   -1.086902   -1.341717
O      4.838014   -1.862616   -1.280846
C      3.865036    0.241498   -0.738493
N      4.259170    0.097754    0.648819
C      4.597030    1.284905    1.370784
O      4.558027    2.364428    0.764498
O      4.973368    1.305611    2.707407
C      5.372581    2.522505    3.311597
C      5.614278    2.445128    4.782166
C      4.644835    3.742190    2.934977
C      6.823459    2.688679    2.695345
C      5.046241    0.923984   -1.416120
C      6.340768    0.507644   -1.268599
C      7.333557    1.213535   -1.923527
C      7.035433    2.311131   -2.706480
C      5.714063    2.746366   -2.865934
C      4.743874    2.028116   -2.204779
C     -0.397317   -3.210912   -1.536976
C     -1.704401   -3.346052   -1.565578
C     -2.077456   -3.228480   -2.961376
O     -3.280967   -3.912769   -3.263203
C     -2.383991   -1.781422   -3.150045
O     -1.865084   -1.428194   -4.223948
C     -2.399959   -3.497013   -0.274676
C     -3.847375   -3.743283   -0.413776
C     -1.768119   -4.619081    0.507560
C      0.385803   -3.611074   -2.710108
H     -0.034569    2.378270    2.590342
H      0.864230    1.504828    1.331236
H      0.985923    3.286162    1.411598
H     -4.673667    1.329117   -0.623338
H     -3.777800    2.128775    0.725927
H     -1.518236    2.776473   -1.924902
H     -2.648777    2.546982   -3.943677
H     -4.180154    2.059464   -3.208414
H     -1.583152    0.436761   -3.692857
H     -4.009232    0.626008   -5.037318
H     -4.764868   -1.521590   -3.389825
H     -5.074212   -1.042525   -1.733641
H     -4.989558    0.206250   -3.080833
H     -1.378307   -0.500343   -1.410256
H     -3.913829   -1.606045   -0.309006
H     -6.933446   -0.242199    3.057672
H     -7.427094    1.085079    5.054453
H     -5.708304    2.552623    6.044013
H     -3.509975    2.667994    5.025383
H     -2.975085    1.323764    2.994749
H     -2.062191   -2.390696    2.517302
H     -0.301169   -0.942190    0.797309
H     -0.313195   -2.417886    1.684990
H      0.806275   -3.505579    0.136351
H      3.456804   -1.022895   -2.456051
H      4.933482   -2.208389   -0.344222
H      3.036360    0.963051   -0.781942
H      4.315936   -0.811799    1.153506
H      4.956166    3.180014    5.352248
H      5.481591    1.429294    5.215640
H      6.637615    2.786258    5.015881
H      3.542602    3.688801    2.889265
H      4.844214    4.501891    3.754679
H      5.088042    4.259242    2.027262
H      6.639011    2.811081    1.620966
H      7.343091    3.512032    3.172356
H      7.289012    1.679961    2.836250
H      6.575891   -0.336193   -0.665325
H      8.373988    0.931608   -1.843589
H      7.820402    2.843564   -3.203602
H      5.510909    3.605097   -3.485483
H      3.718320    2.379220   -2.333273
H     -1.371132   -3.570572   -3.717184
H     -3.353744   -3.937203   -4.261606
H     -3.995418   -4.860151   -0.535470
H     -4.339921   -3.304139   -1.305850
H     -4.401501   -3.514402    0.520844
H     -1.111643   -5.272443   -0.114462
H     -1.191032   -4.256796    1.391841
H     -2.542401   -5.320044    0.929194
H      1.457158   -3.736492   -2.358234
H      0.476618   -2.870029   -3.517128
H      0.167067   -4.656158   -3.078728
