169

C     -0.959551    0.532161    2.591719
C     -1.473412   -0.857905    2.318842
C     -2.083940   -0.978293    0.942271
C     -1.130458   -0.714345   -0.153255
O     -1.216807    0.350484   -0.872414
N     -0.076794   -1.583774   -0.495443
C      0.890789   -1.424846   -1.535854
C      1.809244   -0.295252   -1.395286
C      1.820306    0.567583   -0.411726
C      2.794046    1.661568   -0.373212
C      2.872001    2.580255    0.548807
C      1.838061    2.470851    1.652466
C      3.806458    3.690764    0.640396
O      4.132936    3.977041    1.992879
C      3.675045    5.245143    2.319746
C      5.096306    3.662296   -0.090950
C      5.080519    3.534879   -1.567715
C      6.122643    2.882943    0.644697
O      7.369889    2.859580   -0.027627
C      8.098133    2.122102    0.925643
C      9.513243    1.969375    0.652630
C     10.089241    0.835924    0.347161
C     11.524848    0.820918    0.098087
C     12.130922   -0.300514   -0.218045
C     13.604730   -0.320115   -0.471340
C     14.215446   -1.409182   -0.792921
C     13.246671   -2.626570   -0.889419
C     15.599349   -1.697936   -0.966989
O     15.756771   -2.957950   -1.429538
C     16.831220   -1.012456   -0.780038
C     17.080195    0.226942   -0.268422
O     16.063362    0.981954    0.256425
N     18.321953    0.812741   -0.220709
C     18.489017    2.139133    0.345026
C     19.368791    0.177055   -0.683577
C     19.236161   -1.090868   -1.224894
C     18.003156   -1.655894   -1.266156
O     17.872541   -2.811569   -1.757825
C      7.276856    0.866100    0.989592
O      7.388326    0.066686   -0.151145
C      5.832799    1.472292    0.994718
O      5.376631    1.327636    2.301682
C     -2.801390   -2.298636    0.794581
O     -1.846237   -3.288386    1.062391
O     -3.170188   -2.381047   -0.567975
C     -3.788763   -3.568828   -0.879802
C     -2.862526   -4.729557   -1.007012
C     -3.318078   -5.886496   -1.505253
C     -2.444066   -7.036660   -1.640909
C     -2.960610   -8.153026   -2.141473
C     -2.145163   -9.359473   -2.311862
C     -4.935186   -3.902616    0.049304
C     -6.168795   -4.308664   -0.744441
C     -4.616821   -5.034858    0.998917
C     -5.265692   -2.626061    0.828204
O     -5.482658   -1.627268   -0.100115
C     -6.739899   -1.014700   -0.000741
O     -6.491326    0.294868    0.412755
C     -7.669093    0.974442    0.717684
C     -7.467870    2.453869    0.821790
C     -8.805816    0.566041   -0.185974
O     -9.731581    1.587881   -0.191184
C    -10.950985    1.220421    0.365625
O    -11.880156    1.205359   -0.660985
C    -12.103580    2.396939   -1.287977
C    -13.071282    2.249467   -2.453179
C    -12.540548    3.429861   -0.319048
O    -11.722760    4.555402   -0.451775
C    -12.400766    5.677597   -0.887456
C    -12.554955    2.992498    1.097523
O    -13.786029    2.372460    1.352121
C    -11.383594    2.133936    1.489563
O    -11.695505    1.436852    2.615469
C    -10.963171    1.658590    3.735773
C     -8.311990    0.148251   -1.541235
O     -7.635626    1.107335   -2.245870
C     -8.211758    1.260548   -3.509931
C     -7.384716   -1.053999   -1.346968
O     -6.413441   -1.136719   -2.322978
C     -4.005772   -2.320555    1.659302
O     -4.220212   -1.149363    2.395454
H     -0.009752    0.477981    3.154066
H     -0.777400    1.099048    1.662276
H     -1.692136    1.099811    3.242965
H     -0.531567   -1.509267    2.322624
H     -2.094830   -1.242807    3.129303
H     -2.866059   -0.145734    0.863484
H      0.013086   -2.458920    0.094073
H      1.516395   -2.356889   -1.659168
H      0.388332   -1.343237   -2.552298
H      2.589704   -0.125655   -2.179554
H      1.114131    0.469253    0.397367
H      3.503939    1.679439   -1.199913
H      2.156148    3.064153    2.542250
H      0.851032    2.759611    1.294690
H      1.843971    1.423093    1.971184
H      3.246372    4.651091    0.312375
H      2.567119    5.340618    2.188914
H      4.104239    6.026389    1.648684
H      3.965769    5.536448    3.352490
H      5.499386    4.778020    0.052731
H      5.813829    4.272331   -2.018061
H      4.101305    3.833649   -1.968188
H      5.428944    2.554162   -1.970637
H      6.310010    3.422263    1.617863
H      7.927361    2.646785    1.907420
H     10.119020    2.905050    0.713969
H      9.530365   -0.087698    0.280923
H     12.084272    1.722645    0.174434
H     11.561037   -1.192747   -0.288357
H     14.117223    0.599743   -0.431155
H     13.865346   -3.470815   -1.197878
H     12.835869   -2.733163    0.115686
H     12.476679   -2.374003   -1.634634
H     16.158955    1.363183    1.210199
H     17.485057    2.642857    0.203334
H     19.265637    2.650904   -0.229435
H     18.661672    2.064597    1.430601
H     20.351222    0.627792   -0.651380
H     20.107249   -1.620100   -1.607593
H      7.437926    0.245980    1.864501
H      7.083768    0.523581   -0.963709
H      5.236574    0.889191    0.292563
H      5.635386    0.429521    2.646384
H     -1.994002   -3.754239    1.909235
H     -4.226287   -3.433615   -1.900282
H     -1.831986   -4.732251   -0.734890
H     -4.337672   -5.942210   -1.801533
H     -1.403532   -6.990802   -1.346314
H     -4.022785   -8.165371   -2.431210
H     -2.011474   -9.568001   -3.401002
H     -2.705195  -10.200697   -1.817505
H     -1.188218   -9.217043   -1.779112
H     -6.063327   -4.193208   -1.823776
H     -7.056976   -3.826651   -0.290054
H     -6.308141   -5.413497   -0.571589
H     -5.202963   -5.967392    0.710432
H     -3.569400   -5.372947    0.963404
H     -4.986482   -4.816155    2.021199
H     -6.069305   -2.823831    1.526401
H     -7.362160   -1.460983    0.805399
H     -7.941693    0.625384    1.756550
H     -7.944598    3.042733    0.013198
H     -7.910573    2.869296    1.776122
H     -6.380113    2.698099    0.891667
H     -9.236743   -0.376952    0.270840
H    -10.833994    0.165327    0.684025
H    -11.132546    2.709449   -1.735441
H    -13.877757    1.512160   -2.246155
H    -12.468571    1.969784   -3.338956
H    -13.513718    3.227083   -2.643935
H    -13.566981    3.763476   -0.613377
H    -11.618668    6.493425   -0.951006
H    -13.096485    6.043605   -0.083231
H    -12.902745    5.538436   -1.841708
H    -12.561408    3.912584    1.734748
H    -13.933758    1.599515    0.750688
H    -10.529557    2.801734    1.700839
H    -11.387701    0.991258    4.540528
H    -10.958119    2.667267    4.150866
H     -9.889542    1.318439    3.674820
H     -9.139374   -0.243339   -2.182601
H     -9.276286    1.568406   -3.309516
H     -8.302142    0.287307   -4.036608
H     -7.773165    2.061138   -4.101853
H     -7.987887   -2.003559   -1.427553
H     -6.758590   -1.376882   -3.231464
H     -3.904187   -3.152727    2.376917
H     -5.154815   -0.914350    2.520691
