76

Cl     0.000000    0.000000    0.000000
C     -1.092353    0.469411   -4.391465
C      0.014659    0.461620   -3.313140
C     -0.688393    0.349409   -2.011725
C     -1.523931   -0.899558   -1.919662
N     -1.256366   -1.553649   -0.679180
C     -1.909746   -2.815031   -0.635559
C     -2.588281   -3.126493    0.671869
C     -3.461554   -1.967821    0.980408
C     -4.777792   -2.121232    1.343309
C     -5.518231   -0.968427    1.622999
O     -6.842602   -1.038794    1.993048
C     -7.591787   -2.221038    2.132011
C     -4.940876    0.280913    1.536015
O     -5.697959    1.404800    1.818841
C     -5.088613    2.668799    1.726905
C     -3.592582    0.414623    1.162881
C     -2.852035   -0.712514    0.884143
C     -1.440033   -0.742082    0.478775
C     -0.768851    0.589319    0.350609
C      0.245180    0.443713   -0.782225
C      1.121741    1.589932   -1.018562
C      2.145186    1.984050   -0.022425
N      1.670709    2.317147    1.266635
C      2.628174    3.037508    2.033219
C      4.059125    2.796647    1.739241
C      4.304425    1.542549    0.973769
C      5.481394    0.825438    1.153102
C      5.698210   -0.312429    0.422609
O      6.861282   -1.055168    0.574580
C      7.884366   -0.676566    1.500360
C      4.765111   -0.744368   -0.479144
O      5.005922   -1.900660   -1.209095
C      4.026623   -2.321938   -2.128402
C      3.588956   -0.005471   -0.641029
C      3.342333    1.135537    0.074480
H     -1.920085    1.147023   -4.060711
H     -0.682890    0.932234   -5.308170
H     -1.440442   -0.540273   -4.598539
H      0.497163    1.467333   -3.467245
H      0.657136   -0.388925   -3.509190
H     -1.359058    1.223477   -1.906211
H     -1.284679   -1.536693   -2.803253
H     -2.588078   -0.590792   -1.932420
H     -1.252150   -3.670015   -0.968625
H     -2.738440   -2.802757   -1.404522
H     -3.134534   -4.071500    0.561719
H     -1.787316   -3.232190    1.434411
H     -5.234649   -3.106901    1.411850
H     -7.286867   -2.730681    3.064232
H     -7.550980   -2.870659    1.240524
H     -8.664032   -1.903780    2.224856
H     -5.730049    3.508796    2.053622
H     -4.160660    2.709523    2.337112
H     -4.832185    2.830848    0.645056
H     -3.143482    1.395173    1.101402
H     -0.861858   -1.281719    1.306513
H     -1.518411    1.355104    0.023988
H     -0.345968    0.856372    1.310105
H      0.678709   -0.545555   -0.660640
H      0.515451    2.468943   -1.315069
H      1.724495    1.331264   -1.952790
H      2.567760    2.970744   -0.433245
H      0.778477    2.892816    1.221918
H      2.368984    2.915636    3.110481
H      2.435520    4.137184    1.842300
H      4.488339    3.614496    1.087166
H      4.720466    2.812522    2.653856
H      6.199843    1.192143    1.873190
H      8.225011    0.354213    1.344472
H      7.585271   -0.908524    2.535725
H      8.756660   -1.335550    1.229429
H      3.084297   -2.671223   -1.630448
H      3.723992   -1.520902   -2.825271
H      4.425661   -3.200319   -2.696789
H      2.872166   -0.335057   -1.348985
