45

C     -3.438190   -0.698222    1.891858
C     -3.746176   -0.589729    0.437719
C     -5.035989   -1.330993    0.124346
S     -2.420212   -1.270850   -0.613492
C     -2.031243    0.286060   -1.510898
C     -0.609919    0.747859   -1.334552
N      0.213163   -0.029233   -0.456715
C      1.526893   -0.350978   -0.869003
O      1.940079    0.049624   -1.989313
C      2.478553   -1.148597   -0.053126
N      1.908121   -1.555449    1.204582
C      3.681438   -0.323806    0.179077
C      4.057201   -0.013042    1.409986
C      5.252105    0.807275    1.662445
C      6.293543    0.649509    0.618803
C      5.912411    0.345654   -0.618036
C      4.484487    0.167894   -0.951278
C     -1.286404    1.926898   -0.690310
O     -0.804728    3.076556   -0.454321
N     -2.503185    1.225152   -0.517253
C     -3.803350    0.842097   -0.051300
C     -4.790267    1.046035   -1.114453
O     -6.142607    0.744242   -0.989234
O     -4.418887    1.520126   -2.213624
H     -2.481588   -1.159379    2.137233
H     -4.238305   -1.283619    2.423291
H     -3.470523    0.333054    2.320924
H     -4.927766   -2.373535    0.469153
H     -5.889628   -0.892180    0.660382
H     -5.194681   -1.392295   -0.981901
H     -2.442573    0.342859   -2.513690
H     -0.176220    1.054257   -2.285273
H     -0.111418   -0.359471    0.454024
H      2.762284   -2.087155   -0.609750
H      1.062531   -2.142633    1.041547
H      2.598255   -2.149433    1.695765
H      3.483255   -0.362431    2.262229
H      5.713301    0.458046    2.627115
H      4.965338    1.883428    1.784697
H      7.336148    0.784153    0.883848
H      6.660659    0.228173   -1.386351
H      4.113187    1.157220   -1.322573
H      4.400752   -0.528697   -1.811383
H     -4.083407    1.512167    0.823306
H     -6.796437    0.853392   -1.774500
