23

C     -2.450952    0.346438    1.697321
C     -3.571892   -0.256003    1.193937
C     -3.468437   -0.928229   -0.022684
C     -2.254910   -0.965982   -0.675071
N     -1.156365   -0.374179   -0.179329
C     -1.250915    0.267549    0.980054
N     -0.053043    0.762664    1.259967
C      0.837328    0.456578    0.298175
C      0.120269   -0.277593   -0.629121
C      2.272636    0.847403    0.282271
C      2.931453    0.311362   -0.966608
N      2.835733   -1.135835   -1.002527
H     -2.480831    0.879775    2.637344
H     -4.507625   -0.202705    1.738962
H     -4.367793   -1.405694   -0.416349
H     -2.232848   -1.508201   -1.626718
H      0.501311   -0.692176   -1.532860
H      2.421949    1.939480    0.352659
H      2.762395    0.321022    1.145563
H      4.016184    0.558923   -0.890044
H      2.532233    0.773238   -1.887726
H      3.490548   -1.510692   -1.722228
H      3.073571   -1.476117   -0.034988
