28

C      2.792665    1.652607    0.118271
C      3.091725    0.238947    0.536404
N      1.860670   -0.499712    0.593459
C      1.315621   -0.679314   -0.712482
C      0.030541   -1.427038   -0.783102
O      0.037483   -2.711500   -0.311444
C     -1.094009   -0.664441   -0.151448
C     -1.397948   -0.813416    1.178239
C     -2.429594   -0.093355    1.734818
C     -3.176637    0.789695    0.974070
C     -2.872420    0.940050   -0.357881
O     -3.627766    1.832367   -1.123938
C     -1.839441    0.210322   -0.888826
H      3.174188    2.397024    0.872939
H      1.708411    1.869511    0.035090
H      3.252819    1.914867   -0.877283
H      3.620367    0.277644    1.511156
H      3.807557   -0.213584   -0.209227
H      1.919456   -1.369074    1.170970
H      2.062327   -1.155428   -1.403031
H      1.111190    0.330785   -1.136996
H     -0.241166   -1.490669   -1.877560
H     -0.545864   -3.306610   -0.872053
H     -0.845779   -1.490277    1.814883
H     -2.713318   -0.178165    2.780963
H     -3.984473    1.353895    1.408735
H     -3.397423    1.939166   -2.093612
H     -1.619184    0.345702   -1.931113
