44

C      3.901421    0.652970    2.525608
C      3.859935    0.485685    1.042193
O      2.573551    0.113593    0.574639
C      2.319672   -0.092021   -0.767451
O      3.306077    0.075121   -1.526389
C      0.977502   -0.479814   -1.253855
C      0.724542   -0.676048   -2.527265
C      1.855788   -0.494952   -3.511691
N     -0.549544   -1.047070   -3.055069
C     -1.629742   -1.220932   -2.155044
C     -1.413796   -1.035199   -0.873230
C     -0.130384   -0.656736   -0.265889
C     -0.285226    0.527430    0.630025
C      0.177253    0.528411    1.929411
C      0.016454    1.604948    2.783580
C     -0.635728    2.726601    2.316132
C     -1.111768    2.743134    1.002918
Cl    -1.933733    4.159880    0.419359
C     -0.939578    1.659450    0.170620
Cl    -1.561271    1.761055   -1.445841
C     -2.546486   -1.219146    0.042509
O     -3.687628   -1.535819   -0.304420
O     -2.358130   -1.030003    1.422602
C     -3.454247   -1.205524    2.332887
C     -2.996658   -1.612303   -2.675649
H      4.889348    0.238177    2.874606
H      3.111117    0.057558    3.056526
H      3.871055    1.711087    2.803875
H      4.591750   -0.267342    0.672120
H      4.090009    1.480981    0.565534
H      2.237866    0.535500   -3.462460
H      1.473033   -0.647695   -4.551939
H      2.628755   -1.225554   -3.247279
H     -0.704572   -1.192344   -4.078029
H      0.189282   -1.499636    0.384963
H      0.682521   -0.340028    2.360708
H      0.397739    1.556969    3.793320
H     -0.780307    3.587549    2.954435
H     -3.067592   -1.453998    3.340491
H     -4.163879   -1.955690    1.935395
H     -3.969158   -0.223380    2.380030
H     -2.911442   -1.658180   -3.801986
H     -3.299233   -2.614245   -2.310638
H     -3.744570   -0.822440   -2.500362
