52

C      3.608956    2.427433    0.506572
C      3.688555    0.935583    0.361178
C      5.090343    0.411895    0.323342
S      2.851004    0.393995   -1.192050
C      2.777716   -1.313628   -0.588665
C      1.494791   -2.029664   -0.599947
N      0.286240   -1.277132   -0.633792
C     -0.860681   -1.641970   -1.383004
O     -0.849476   -2.679822   -2.067804
C     -2.113875   -0.800518   -1.377485
O     -1.946870    0.316126   -0.561520
C     -2.129750    1.629345   -0.905957
C     -2.521485    1.999805   -2.172493
C     -2.701794    3.327333   -2.504973
C     -2.496259    4.323526   -1.582725
C     -2.105669    3.936515   -0.323717
C     -1.917461    2.644671    0.043648
C     -3.127922   -1.672703   -0.680885
C     -4.162683   -2.254407   -1.358558
C     -5.059249   -3.043883   -0.659943
C     -4.876745   -3.216585    0.699606
C     -3.840064   -2.638836    1.401226
C     -2.952738   -1.849287    0.672829
C      1.960693   -2.380897    0.801378
O      1.893993   -3.381001    1.556567
N      2.487618   -1.070514    0.832390
C      2.855068    0.179195    1.329795
C      3.573368   -0.012536    2.644871
O      4.033272    1.101725    3.325600
O      3.772194   -1.142191    3.149229
H      3.889798    2.918162   -0.424961
H      2.562586    2.664959    0.830224
H      4.265188    2.734459    1.320053
H      5.505716    0.260998    1.361832
H      5.788228    1.073051   -0.211652
H      5.098381   -0.597936   -0.137890
H      3.651219   -1.928762   -0.789146
H      1.531358   -2.951464   -1.196174
H      0.232749   -0.398828   -0.073712
H     -2.427146   -0.605656   -2.413267
H     -2.705091    1.280758   -2.959387
H     -3.011880    3.639912   -3.503312
H     -2.644604    5.359699   -1.868431
H     -1.941499    4.717545    0.409804
H     -1.609677    2.320727    1.031614
H     -4.287443   -2.106669   -2.421643
H     -5.890316   -3.517798   -1.173921
H     -5.595182   -3.845214    1.241538
H     -3.707569   -2.782804    2.471946
H     -2.148122   -1.404889    1.235452
H      1.976328    0.868352    1.553681
H      4.755890    1.079826    4.004290
