118

C      5.046937    2.320967   -2.410366
C      3.723781    2.897312   -1.997254
C      3.388393    2.497111   -0.541295
O      3.341082    1.123081   -0.418308
C      2.415628    0.159504   -0.453524
O      1.796784   -0.303288   -1.474565
C      1.961293   -0.548781    0.799173
C      2.859615   -1.707705    1.140500
C      0.497183   -0.957530    0.711097
O      0.427124   -2.316126    0.857704
C      0.027716   -3.014243   -0.311042
C      1.137313   -3.982643   -0.612225
C      0.788746   -5.181865   -1.409567
C      1.079088   -5.008907   -2.889490
O      1.673260   -6.206858   -0.967977
C      1.465777   -7.388263   -1.638928
C     -0.580535   -5.665327   -1.102476
O     -0.551202   -6.452726    0.070780
C     -1.593785   -4.551379   -0.919731
C     -2.038915   -3.976515   -2.232591
O     -1.182597   -3.630901    0.014186
C     -0.330061   -0.222849    1.750294
C     -1.018766   -1.284870    2.584743
C     -1.184434    0.863268    1.278365
O     -2.447159    0.572948    0.865489
C     -2.924477    1.097244   -0.289595
O     -3.997533    1.940913   -0.130136
C     -5.147805    1.379786    0.377463
C     -4.873135    0.670632    1.671431
C     -5.722044    0.397303   -0.637676
C     -4.719294    0.205185   -1.741583
C     -3.327880    0.015007   -1.233675
O     -2.415090   -0.174592   -2.269937
N     -5.059754   -0.815247   -2.680533
C     -6.286027   -0.491885   -3.409858
C     -5.298758   -2.107080   -2.058613
C     -1.117986    2.149224    2.163881
C     -1.262647    1.847156    3.592573
O     -2.241632    2.884043    1.773423
C      0.086414    2.896504    1.729883
C      0.650601    4.006025    2.504990
C      1.225644    3.738138    3.841024
F     -0.357642    4.991465    2.606438
C      1.655862    4.660910    1.570334
O      1.114338    5.122550    0.560364
C      3.082504    4.782862    1.745733
C      3.599209    5.817793    0.726280
C      3.943709    3.594592    1.670027
O      3.466504    2.438664    2.277063
C      4.445563    3.159089    0.317496
C      5.539131    2.101047    0.557065
O      5.051903    4.149354   -0.423393
H      5.068485    2.144366   -3.530782
H      5.281036    1.354468   -1.947913
H      5.917801    2.975734   -2.234077
H      2.962383    2.547684   -2.704970
H      3.783360    3.999992   -2.107057
H      2.420460    2.956166   -0.309691
H      2.065520    0.173604    1.647228
H      3.776010   -1.368052    1.689997
H      2.337727   -2.482080    1.710815
H      3.238240   -2.162454    0.204237
H      0.177221   -0.639905   -0.324071
H     -0.110589   -2.283864   -1.137777
H      1.671322   -4.265504    0.319789
H      1.870570   -3.391224   -1.250504
H      0.953089   -3.974357   -3.249143
H      0.524508   -5.739059   -3.492022
H      2.161122   -5.241666   -3.052422
H      1.629784   -7.250412   -2.737419
H      0.547884   -7.925863   -1.407963
H      2.309699   -8.066745   -1.333402
H     -0.930652   -6.326722   -1.909485
H      0.342865   -6.399187    0.493892
H     -2.505297   -5.048304   -0.471222
H     -2.077802   -2.872357   -2.226843
H     -1.395578   -4.386185   -3.032856
H     -3.078127   -4.321882   -2.512244
H      0.450855    0.178360    2.477997
H     -1.698981   -1.869510    1.968308
H     -0.218861   -1.974974    2.926690
H     -1.483685   -0.891159    3.511677
H     -0.744293    1.304370    0.360811
H     -2.151527    1.768862   -0.801050
H     -5.867361    2.189756    0.577150
H     -4.436517   -0.363328    1.514690
H     -5.867603    0.411939    2.174739
H     -4.249097    1.199472    2.384485
H     -5.897332   -0.550395   -0.132535
H     -6.674047    0.789633   -1.002357
H     -4.698507    1.172246   -2.331320
H     -3.335874   -1.005064   -0.719913
H     -1.503753    0.134129   -1.986256
H     -6.102654   -0.512639   -4.503670
H     -7.104660   -1.170561   -3.180589
H     -6.614307    0.547549   -3.148342
H     -5.559031   -2.801059   -2.883251
H     -4.425297   -2.517428   -1.543590
H     -6.212869   -2.089867   -1.389403
H     -0.462991    1.150296    3.977812
H     -2.204955    1.374548    3.886335
H     -1.125241    2.730526    4.251291
H     -1.976330    3.783873    1.538839
H     -0.144752    3.350789    0.700377
H      0.909503    2.204298    1.450180
H      0.648559    4.238018    4.679770
H      1.374877    2.654890    4.024399
H      2.252644    4.181400    4.002836
H      3.350687    5.306046    2.730944
H      4.667958    6.025240    0.842832
H      3.262424    5.588942   -0.301511
H      3.102679    6.816321    0.945774
H      4.886618    3.829856    2.275409
H      3.721636    2.413549    3.230747
H      6.454836    2.306924   -0.007202
H      5.813836    2.178502    1.626127
H      5.123852    1.082952    0.423211
H      5.986579    4.336411   -0.208340
