52

C      4.977160    0.407558   -2.257368
C      3.985571    0.648173   -1.147311
C      3.378536    2.014485   -1.204120
S      2.715835   -0.649541   -1.094930
C      3.025529   -1.230271    0.606529
C      1.927011   -0.974784    1.594778
N      0.735504   -0.361596    1.111857
C     -0.576925   -0.817866    1.358783
O     -0.700264   -1.851383    2.063510
C     -1.817259   -0.141741    0.830416
N     -1.525201    0.995791    0.065074
C     -2.091358    2.029708   -0.307809
C     -3.449620    2.485184   -0.041742
O     -3.929829    3.630249   -0.511020
C     -5.147327    3.842741   -0.160559
C     -5.559250    2.772067    0.612080
C     -4.465181    1.936102    0.666360
C     -2.700708   -1.124905    0.164188
C     -2.488470   -1.401873   -1.182049
C     -3.324536   -2.332151   -1.760906
C     -4.331819   -2.975030   -1.067577
O     -5.166736   -3.919714   -1.691244
C     -4.496162   -2.660850    0.265089
C     -3.687454   -1.734629    0.901816
C      2.885571   -0.095552    2.296700
O      2.930632    0.382360    3.449750
N      3.684037   -0.046524    1.127923
C      4.676301    0.426120    0.205516
C      5.782486   -0.527889    0.136282
O      5.775012   -1.651268    0.933689
O      6.780345   -0.391596   -0.628319
H      4.445797    0.678831   -3.213898
H      5.220154   -0.657024   -2.345421
H      5.855177    1.077704   -2.186870
H      2.491598    2.060571   -1.873235
H      3.030477    2.348152   -0.192165
H      4.114520    2.762254   -1.546402
H      3.544710   -2.179777    0.679505
H      1.723762   -1.867888    2.199808
H      0.831349    0.501721    0.522429
H     -2.337352    0.182985    1.757272
H     -1.441202    2.697872   -0.943000
H     -5.716501    4.725267   -0.445095
H     -6.547481    2.695416    1.039219
H     -4.456813    1.005607    1.195626
H     -1.697803   -0.901113   -1.737727
H     -3.163497   -2.550964   -2.807579
H     -6.015351   -3.538166   -2.116248
H     -5.286802   -3.165179    0.809950
H     -3.845959   -1.508368    1.963945
H      5.099087    1.400736    0.556393
H      6.350702   -2.450010    0.689758
