76

C     -5.924569    1.414512   -2.346021
N     -4.552800    1.362858   -2.756127
C     -3.635530    1.738562   -1.700562
C     -3.870648    3.168252   -1.280171
C     -3.810179    0.824070   -0.505326
C     -3.675552   -0.623170   -0.887978
C     -4.394887   -1.404618    0.209037
C     -4.116811   -0.742529    1.548156
N     -5.284673    0.001419    1.951031
C     -2.874618    0.135200    1.434137
O     -2.967964    1.131329    0.528500
O     -1.786959   -0.692621    1.316208
C     -0.918986   -0.761033    2.343727
C     -0.704140   -2.110994    2.946860
N      0.187504   -2.056592    4.073832
C     -0.057709   -3.001242    1.888821
C      1.233781   -2.471831    1.367366
N      1.540193   -3.232444    0.150658
C      1.119059   -1.024319    0.930780
O      2.381305   -0.533367    0.741461
C      2.695823   -0.067640   -0.503987
O      2.867632    1.310249   -0.432629
C      4.097076    1.688096    0.085260
C      5.245084    1.237709   -0.808142
C      6.111034    0.329887    0.035926
O      5.953429    2.290776   -1.334971
C      4.613359    0.374389   -1.908498
N      3.678648    1.196604   -2.607103
C      4.225863    2.325455   -3.289339
C      3.848977   -0.711973   -1.174318
O      3.474852   -1.656154   -2.148898
C      0.454413   -0.187443    2.033344
O      1.243819   -0.231902    3.184376
H     -6.258017    0.474845   -1.834737
H     -6.075455    2.226673   -1.597633
H     -6.626610    1.565128   -3.189196
H     -4.409338    1.967536   -3.589761
H     -2.592199    1.675414   -2.101959
H     -4.655273    3.665543   -1.901756
H     -4.227834    3.248072   -0.220106
H     -2.948232    3.792790   -1.407346
H     -4.883976    0.962598   -0.188446
H     -4.047626   -0.859686   -1.890900
H     -2.597632   -0.884915   -0.865026
H     -4.119142   -2.469420    0.172537
H     -5.471943   -1.313392    0.008904
H     -3.961273   -1.552246    2.284236
H     -6.000034   -0.635767    2.340949
H     -4.990512    0.751914    2.609802
H     -2.786360    0.619386    2.454647
H     -1.304216   -0.094440    3.150219
H     -1.621071   -2.627805    3.244228
H      1.091835   -2.483441    3.860167
H     -0.301827   -2.368475    4.914700
H      0.111477   -4.031593    2.260199
H     -0.744910   -3.120747    1.003654
H      2.093550   -2.635104    2.045443
H      0.676205   -3.636578   -0.273196
H      2.131856   -4.056580    0.412565
H      0.451268   -1.007413    0.075662
H      1.799131   -0.205805   -1.152228
H      4.232388    1.377972    1.141902
H      4.114080    2.798880    0.075082
H      6.525016   -0.528356   -0.506195
H      6.967239    0.913304    0.492102
H      5.566903   -0.057146    0.936082
H      6.913590    2.067268   -1.353366
H      5.398865   -0.063192   -2.560381
H      2.879947    0.740868   -3.044388
H      5.273815    2.143825   -3.557538
H      4.199403    3.195396   -2.577909
H      3.594771    2.560658   -4.185015
H      4.589461   -1.157775   -0.465388
H      3.227620   -1.253784   -3.006951
H      0.404465    0.878130    1.731486
H      1.984768    0.397966    3.169448
