83

C      1.639683    1.768155    2.666417
N      2.162553    1.832101    1.313683
C      1.779653    3.064263    0.651920
C      1.724925    0.663833    0.606586
C      2.195661    0.581005   -0.808434
C      3.639411    0.991095   -1.006734
C      4.486068    0.169075   -0.037424
C      4.341762   -1.238361   -0.469334
C      5.341849   -2.071352   -0.630653
O      5.139293   -3.401510   -1.033289
C      6.704614   -1.570164   -0.386917
C      7.749676   -2.455079   -0.498701
O      7.481262   -3.751472   -0.879934
C      9.028807   -2.034283   -0.230646
C      9.262084   -0.728676    0.148603
C      8.223266    0.156665    0.260098
C      6.918360   -0.266675   -0.012574
C      5.836069    0.724686    0.064259
C      6.092190    1.828611   -0.988112
O      5.977036    1.412002    1.291847
C      2.981319   -1.753263   -0.778594
O      2.674773   -2.934439   -0.555733
C      2.009466   -0.808822   -1.361489
O      2.223112   -0.717921   -2.748625
C      0.591240   -1.215554   -1.143965
O      0.173356   -2.314443   -1.570539
C     -0.364717   -0.342787   -0.423758
C     -1.655858   -0.413185   -0.675755
O     -2.144435   -1.301090   -1.614220
N     -2.550594    0.425211    0.016946
C     -3.654949   -0.101046    0.776207
N     -4.490427   -0.833616   -0.161949
C     -4.970948   -0.005414   -1.224938
C     -6.330820    0.594741   -0.940593
N     -7.271698   -0.453266   -0.679697
C     -6.808033   -1.709731   -0.162701
C     -5.458474   -1.673368    0.462235
C     -8.645439   -0.258136   -0.928457
N     -9.088178    0.074700   -2.118325
N     -9.566742   -0.428108    0.141006
C     -9.798027    0.531309    0.945795
N     -9.146555    1.765645    0.785934
N    -10.713121    0.352991    2.001543
C      0.227219    0.572620    0.560970
O     -0.533244    1.221336    1.302008
H      1.271254    0.775078    2.915915
H      2.430845    2.138380    3.356446
H      0.815296    2.533588    2.763641
H      1.007695    3.614381    1.260153
H      2.683844    3.713419    0.627661
H      1.384695    2.934574   -0.352878
H      2.056039   -0.229953    1.165936
H      1.560774    1.244469   -1.472978
H      3.891947    0.725992   -2.055036
H      3.752253    2.067474   -0.802676
H      3.986964    0.310623    0.972533
H      5.048785   -4.152944   -0.378136
H      8.236734   -4.424034   -0.970208
H      9.880663   -2.720879   -0.313172
H     10.278970   -0.394301    0.362584
H      8.428094    1.177963    0.559876
H      5.657363    2.771146   -0.629828
H      7.206272    1.979769   -0.950866
H      5.759121    1.523242   -1.989292
H      5.661455    2.342082    1.220846
H      2.755865   -1.485794   -3.076886
H     -1.852632   -1.173388   -2.573654
H     -2.415688    1.455897   -0.022673
H     -3.306628   -0.807292    1.564989
H     -4.193182    0.717941    1.250730
H     -5.058355   -0.537576   -2.192248
H     -4.265332    0.836946   -1.364272
H     -6.594450    1.233150   -1.801526
H     -6.242991    1.294111   -0.064064
H     -7.546388   -2.026582    0.626113
H     -6.821517   -2.449656   -0.993637
H     -5.492699   -1.442525    1.553209
H     -5.048423   -2.725366    0.419145
H     -8.396135    0.187369   -2.861253
H     -9.333493    2.321103   -0.074168
H     -8.485142    2.158715    1.481810
H    -10.421197   -0.136397    2.867228
H    -11.693130    0.700993    1.946173
