50

C      2.254861   -2.149407    0.762839
C      1.626982   -2.054920   -0.633887
C      1.410302   -3.470076   -1.095953
N      2.529752   -1.389197   -1.521247
C      2.132912    0.003488   -1.566898
C      0.670943   -0.087376   -1.273178
O     -0.128904    0.802567   -1.617738
N      0.394971   -1.294883   -0.577826
C     -0.764217   -1.759922    0.060948
C     -1.677800   -0.948007    0.802557
S     -1.297183    0.649266    1.458612
C     -2.665858    1.507826    0.637914
C     -3.709689    1.776674    1.705622
C     -2.167706    2.824018    0.065837
C     -3.090907    0.574119   -0.399298
N     -2.391146   -0.647370   -0.413543
C     -1.902231   -1.863867   -0.892629
O     -2.291813   -2.686754   -1.773899
C     -4.554665    0.276133   -0.170442
O     -4.991148   -1.007902   -0.005477
O     -5.340569    1.255239   -0.140040
C      2.842195    0.818147   -0.566155
C      4.205115    0.660565   -0.401098
C      4.912216    1.400134    0.524633
C      4.196378    2.303859    1.277691
C      2.837504    2.474089    1.126438
C      2.134547    1.726519    0.193565
H      2.139993   -1.199970    1.313857
H      3.312350   -2.395125    0.671744
H      1.742838   -2.934138    1.346430
H      1.044652   -4.102402   -0.241914
H      2.393119   -3.897192   -1.386512
H      0.745072   -3.546875   -1.970913
H      2.580539   -1.821615   -2.468666
H      2.303424    0.349326   -2.606901
H     -0.615349   -2.780701    0.510998
H     -2.340083   -1.527462    1.480791
H     -4.341821    2.650037    1.441892
H     -4.330919    0.903532    1.933394
H     -3.210495    2.051385    2.681685
H     -1.326041    3.194388    0.682648
H     -1.930847    2.779151   -0.996707
H     -3.001612    3.569999    0.218857
H     -3.092737    1.120069   -1.376498
H     -5.965972   -1.247083   -0.215798
H      4.703790   -0.068074   -1.026831
H      5.981521    1.249645    0.626139
H      4.704954    2.909522    2.018831
H      2.261824    3.181158    1.712221
H      1.066956    1.869465    0.083906
