24

C     -1.742608    0.880178   -1.275399
C     -1.873475    0.293067    0.108439
C     -0.747905    0.733257    1.014390
C      0.587207    0.327251    0.504667
C      1.140145   -0.884175    0.864138
C      2.374866   -1.250860    0.387165
C      3.123805   -0.456276   -0.458659
C      2.568491    0.753682   -0.815995
C      1.331748    1.130453   -0.343449
N     -2.016675   -1.117687    0.016937
O     -2.148430   -1.758831    1.172890
H     -1.425046    1.952419   -1.188572
H     -1.055961    0.306904   -1.928727
H     -2.722104    0.906928   -1.796079
H     -2.809463    0.703691    0.560333
H     -0.726843    1.835032    1.131705
H     -0.885365    0.273878    2.013685
H      0.563940   -1.537821    1.538674
H      2.782540   -2.215127    0.691074
H      4.103769   -0.771385   -0.824039
H      3.130624    1.396345   -1.476169
H      0.905247    2.079354   -0.628633
H     -1.393886   -1.577834   -0.672739
H     -3.064620   -2.002443    1.404363
