43

C     -3.913559    2.321330    1.869443
C     -3.343145    1.023152    1.204290
C     -2.029731    1.394256    0.694094
N     -1.092379    0.577197    0.089181
C     -0.520784   -0.397693    1.044101
C      0.684106   -1.092147    0.554371
C      1.860010   -0.212995    0.305580
C      2.986820   -0.799293   -0.232278
C      4.087927    0.015721   -0.410290
C      4.050839    1.352069   -0.062413
C      2.895423    1.899477    0.474721
C      1.770158    1.105948    0.665550
N      5.172577   -0.732708   -0.975555
C      4.734362   -2.070178   -1.161336
O      5.393112   -3.046282   -1.644151
C      3.336157   -2.185100   -0.695591
C     -1.214453    0.026537   -1.181135
C     -2.045741   -1.117365   -1.524086
C     -3.504702   -1.114394   -1.328396
H     -3.820815    2.253581    2.958977
H     -4.938051    2.514056    1.556685
H     -3.292300    3.177268    1.548392
H     -3.288547    0.281577    2.017666
H     -4.138729    0.762309    0.470408
H     -1.483525    1.882839    1.599450
H     -2.188160    2.289123   -0.010776
H     -0.275629    0.176086    1.952023
H     -1.267838   -1.153966    1.350309
H      0.562270   -1.679739   -0.357852
H      1.029538   -1.832746    1.329239
H      4.920880    1.981027   -0.205241
H      2.880448    2.942406    0.741023
H      0.865185    1.540975    1.084552
H      6.113685   -0.374867   -1.207409
H      3.329760   -2.876498    0.168996
H      2.652132   -2.548813   -1.468224
H     -1.546896    0.887360   -1.887125
H     -0.160580   -0.205296   -1.551643
H     -1.632652   -2.098938   -1.122523
H     -1.895140   -1.288020   -2.653246
H     -3.980120   -0.198840   -1.717002
H     -3.923717   -1.962802   -1.979747
H     -3.828200   -1.415616   -0.303034
