63

C     -4.767671    0.680119   -0.610862
C     -4.857858   -0.219567    0.609599
O     -3.808630   -0.023340    1.480341
C     -2.633394   -0.535421    0.877625
C     -2.626722   -2.036651    0.913422
C     -4.037683   -2.580262    0.874627
N     -4.056587   -3.843278    0.144920
C     -4.986820   -1.646150    0.177502
O     -4.855598   -1.730845   -1.220091
O     -1.511563    0.052503    1.448562
C     -0.873183    0.826289    0.522641
C     -0.961406    2.315176    0.863709
C     -0.110594    3.183678    0.001401
O      1.043763    3.538146    0.737579
C      0.374430    2.426336   -1.233916
C      1.169714    1.286345   -0.683058
C      2.471529    1.029191   -1.024706
O      3.149428    1.807324   -1.922701
C      3.105676   -0.071766   -0.421153
C      4.485688   -0.340619   -0.786061
O      5.041465    0.414881   -1.614791
C      5.200537   -1.482096   -0.184053
C      6.508745   -1.716774   -0.545852
C      7.212645   -2.779831   -0.001084
C      6.581036   -3.599929    0.910352
C      5.255149   -3.355612    1.271925
C      4.568383   -2.297992    0.724286
C      3.164181   -2.030503    1.100374
O      2.600003   -2.785450    1.932175
C      2.473063   -0.887666    0.487365
C      1.152467   -0.628532    0.835041
O      0.421767   -1.364754    1.722602
C      0.523232    0.468886    0.231762
C     -0.862453    4.394402   -0.389853
C     -0.343625    5.726633    0.012953
O     -1.891017    4.344003   -1.029666
H     -4.271741    1.629553   -0.410336
H     -4.321322    0.118160   -1.478594
H     -5.811805    0.899533   -0.924775
H     -5.793374    0.069297    1.171441
H     -2.762620   -0.249880   -0.207286
H     -2.096606   -2.479011    0.029761
H     -2.146110   -2.424242    1.834913
H     -4.377369   -2.738504    1.917700
H     -3.153658   -4.309115    0.323135
H     -4.159802   -3.631533   -0.884583
H     -6.024087   -2.035777    0.389650
H     -5.716666   -1.551412   -1.660448
H     -1.440788    0.743246   -0.451754
H     -2.012993    2.667468    0.816122
H     -0.638383    2.383217    1.932281
H      1.148386    2.985224    1.540211
H     -0.522209    2.004277   -1.733567
H      0.939269    3.111185   -1.859343
H      2.773025    2.593694   -2.387867
H      6.980957   -1.061710   -1.260378
H      8.243125   -2.943245   -0.303008
H      7.123940   -4.420541    1.331098
H      4.762603   -3.999597    1.986189
H      0.550041   -2.131695    2.275117
H      0.628876    5.932132   -0.522036
H     -0.162779    5.782289    1.111292
H     -1.056010    6.520109   -0.232503
