87

C     -4.831729    5.024375   -3.447193
O     -4.575242    3.863325   -2.680176
C     -5.537644    3.470730   -1.763009
C     -6.716925    4.168789   -1.581379
C     -7.632429    3.725964   -0.652745
C     -7.404995    2.595573    0.108399
C     -6.215234    1.892583   -0.075806
C     -5.918265    0.690751    0.701255
O     -6.759721    0.305846    1.536797
C     -4.673321   -0.055161    0.519087
C     -4.344049   -1.188183    1.226078
O     -5.185282   -1.701892    2.164946
C     -3.120940   -1.856126    1.000237
C     -2.842867   -3.053800    1.809645
C     -1.858660   -4.011990    1.248269
O     -0.793173   -4.099858    2.177277
C     -1.230653   -3.602825   -0.051343
C     -0.944235   -2.136465   -0.133678
O      0.001865   -1.767815    0.812014
C      1.167563   -1.248254    0.248103
C      1.408692    0.182482    0.681365
C      2.638689    0.375363    1.499355
N      3.837575    0.620144    0.748320
C      4.605843    1.789928    0.788977
O      4.228084    2.710922    1.541070
C      5.839657    1.956993   -0.029339
N      6.042520    0.741892   -0.792365
C      5.694455    3.108693   -0.986357
C      6.877872    3.354323   -1.843768
C      7.247170    2.191924   -2.719119
C      8.097902    3.819906   -1.102061
C      2.897008   -0.757329    2.458833
O      4.260844   -0.875644    2.721824
C      2.380474   -2.078372    1.945841
C      3.373906   -3.176703    2.283238
O      2.197705   -2.098444    0.566380
C     -2.228736   -1.405383    0.079360
C     -2.547570   -0.272137   -0.634030
O     -1.705735    0.250686   -1.580047
C     -3.754733    0.386952   -0.410741
C     -4.068975    1.597632   -1.184176
O     -3.246370    2.005430   -2.025985
C     -5.302310    2.337057   -1.003871
C     -2.504868   -5.333527    1.132350
O     -2.086327   -6.259963    1.793037
C     -3.656905   -5.568418    0.228883
O     -4.068878   -6.894761    0.316095
H     -4.047586    5.187768   -4.209828
H     -4.932801    5.919636   -2.793946
H     -5.814014    4.851092   -3.944444
H     -6.931807    5.043727   -2.145577
H     -8.557313    4.257472   -0.496832
H     -8.105840    2.242328    0.831160
H     -6.042453   -1.413707    2.467632
H     -2.556086   -2.697997    2.833945
H     -3.846580   -3.546726    1.989187
H     -1.117721   -4.464620    3.041037
H     -0.239766   -4.134428   -0.121174
H     -1.815141   -3.968674   -0.910785
H     -0.578107   -1.940783   -1.160367
H      1.000398   -1.295230   -0.868511
H      0.530234    0.473404    1.295200
H      1.415620    0.884127   -0.175595
H      2.474726    1.284447    2.122686
H      4.153635   -0.152144    0.118982
H      6.719422    2.140030    0.603935
H      5.246165    0.561990   -1.441456
H      6.323264   -0.068630   -0.234592
H      5.350236    4.011625   -0.457392
H      4.842476    2.836717   -1.676970
H      6.595511    4.193846   -2.545898
H      7.888860    2.509086   -3.585244
H      7.837149    1.419164   -2.194913
H      6.336967    1.754135   -3.204999
H      8.206058    4.943573   -1.116355
H      9.026047    3.452540   -1.614212
H      8.158009    3.420234   -0.067004
H      2.403925   -0.573046    3.458342
H      4.482744   -0.744448    3.676204
H      1.401985   -2.312710    2.438719
H      2.825679   -4.143024    2.374123
H      3.948518   -2.952032    3.193819
H      4.082598   -3.313357    1.418270
H     -0.824086   -0.091961   -1.850117
H     -4.515786   -4.904538    0.457692
H     -3.322944   -5.409942   -0.838424
H     -5.043248   -6.984163    0.465113
