33

Cl    -5.454880    0.642101    0.887774
C     -3.876357   -0.110562    0.722970
C     -2.788058    0.586375    0.220289
C     -1.534614    0.032434    0.075415
C     -1.352159   -1.276857    0.447503
O     -0.212605   -2.090360    0.415046
C      1.065571   -1.650358    0.103651
C      1.906523   -2.703853   -0.153101
C      3.210932   -2.437267   -0.478247
C      3.711755   -1.156897   -0.557813
C      2.849520   -0.082051   -0.294771
C      1.545163   -0.356323    0.030179
C      0.802873    0.894531    0.268275
C      1.459657    2.120506   -0.305268
N      0.403465    3.073717   -0.399014
C     -0.861259    2.385599   -0.318792
C     -0.513357    0.929259   -0.473917
C     -2.433124   -1.997761    0.955967
C     -3.665734   -1.421218    1.088231
H     -2.917761    1.613819   -0.074777
H      1.492541   -3.712722   -0.085458
H      3.875640   -3.269987   -0.681160
H      4.757049   -0.968567   -0.819368
H      3.293167    0.893315   -0.373044
H      0.618168    1.087372    1.343067
H      1.784805    1.858110   -1.346893
H      2.309701    2.475486    0.319846
H      0.517361    3.618808   -1.269568
H     -1.273696    2.572880    0.696138
H     -1.563263    2.709984   -1.116127
H     -0.360675    0.755283   -1.561100
H     -2.279787   -3.026333    1.245690
H     -4.516562   -1.988464    1.488377
