123

C      4.252043    1.168761    3.888153
C      3.516484   -0.003139    3.338293
C      3.353461    0.087966    1.817280
O      2.657316    1.214606    1.428321
C      1.573165    1.420156    0.633506
O      1.584122    1.734895   -0.598585
C      0.211835    1.282148    1.196588
C      0.089868    0.370447    2.370096
C     -0.878734    1.167639    0.182236
O     -1.010133    2.456109   -0.399588
C     -2.192775    3.087246   -0.054327
C     -1.985778    4.339507    0.723923
C     -2.397665    5.613650    0.037014
C     -2.783841    6.605797    1.145511
O     -1.295743    6.169803   -0.586918
C     -1.491616    7.355936   -1.227364
C     -3.598585    5.459219   -0.833928
O     -4.658219    6.295044   -0.472826
C     -4.063192    4.000823   -0.941234
C     -4.860819    3.572171    0.239579
O     -2.927764    3.274415   -1.199303
C     -0.766374    0.224234   -0.923090
C     -2.170185    0.120020   -1.553073
C     -0.296995   -1.160217   -0.703166
O     -1.401860   -1.950845   -0.413759
C     -1.380848   -2.642084    0.753425
O     -1.499110   -4.021954    0.593179
C     -2.555188   -4.426830   -0.170722
C     -2.314905   -4.535440   -1.635468
C     -3.788585   -3.571934    0.038661
C     -3.749349   -3.113567    1.479584
C     -2.534492   -2.210560    1.633924
O     -2.195799   -2.292815    2.992110
N     -4.967671   -2.412821    1.762194
C     -5.002040   -1.870206    3.107383
C     -6.061170   -3.355605    1.604540
C      0.457445   -1.740911   -1.914794
C     -0.180899   -1.446568   -3.218055
O      0.602006   -3.121807   -1.679659
C      1.870171   -1.200869   -1.924168
C      2.864133   -2.239027   -2.407507
C      3.046631   -2.213198   -3.909984
C      4.191679   -2.072899   -1.796098
N      4.972765   -3.099934   -1.783103
O      4.564672   -4.304707   -2.326768
C      5.171426   -5.470916   -1.792891
C      4.664278   -0.781232   -1.198864
C      5.995710   -0.448513   -1.874902
C      4.933758   -1.007850    0.239289
O      6.214222   -1.552019    0.400408
C      4.733034    0.170745    1.144433
C      4.981140    1.495210    0.519231
O      5.685356    0.025116    2.179340
H      4.492895    1.909216    3.096683
H      5.212886    0.825898    4.312098
H      3.672141    1.626934    4.720549
H      4.110676   -0.922732    3.521495
H      2.545925   -0.096847    3.821616
H      2.912495   -0.890123    1.534453
H      0.041451    2.324215    1.653667
H     -0.995445    0.122107    2.542719
H      0.711896   -0.539508    2.345479
H      0.386780    0.878126    3.338189
H     -1.814913    1.003465    0.755996
H     -2.744070    2.379254    0.632760
H     -2.413464    4.302000    1.757242
H     -0.873742    4.418120    0.911414
H     -3.126660    7.564081    0.739002
H     -3.551226    6.152617    1.816628
H     -1.893693    6.813913    1.785261
H     -2.224859    7.367360   -2.046288
H     -1.687581    8.211675   -0.546330
H     -0.508616    7.627754   -1.717682
H     -3.322197    5.725885   -1.874751
H     -5.213988    6.481173   -1.267611
H     -4.713667    3.909234   -1.862660
H     -4.765775    2.478021    0.407185
H     -5.954225    3.709734   -0.014813
H     -4.718980    4.172746    1.152179
H     -0.151086    0.693056   -1.730500
H     -2.486967   -0.949780   -1.657390
H     -2.951194    0.544681   -0.876671
H     -2.250108    0.665442   -2.495477
H      0.479584   -1.178147    0.086048
H     -0.452624   -2.491041    1.365169
H     -2.844785   -5.456970    0.194511
H     -1.344566   -5.054803   -1.870225
H     -2.426998   -3.600566   -2.199851
H     -3.098008   -5.233565   -2.053083
H     -4.691348   -4.173768   -0.184465
H     -3.818665   -2.682871   -0.615880
H     -3.623624   -4.039460    2.109809
H     -2.865177   -1.173847    1.434316
H     -1.668403   -3.099247    3.196555
H     -6.060701   -1.699744    3.375638
H     -4.469372   -0.882402    3.037671
H     -4.489338   -2.558226    3.791969
H     -5.709089   -4.419246    1.683102
H     -6.588936   -3.263310    0.654367
H     -6.796526   -3.220181    2.422890
H     -0.150468   -0.381627   -3.447328
H      0.486387   -1.932979   -3.992632
H     -1.163351   -1.930967   -3.384966
H      0.834248   -3.181093   -0.698389
H      2.001842   -0.311199   -2.539900
H      2.116424   -1.010755   -0.837320
H      2.502406   -3.268524   -2.134366
H      2.752974   -1.243623   -4.361695
H      2.549088   -3.084445   -4.402016
H      4.134800   -2.335052   -4.188210
H      6.101330   -5.695817   -2.320673
H      5.456390   -5.317263   -0.714280
H      4.449252   -6.306667   -1.786260
H      3.979408    0.044708   -1.438616
H      6.769951   -0.151981   -1.127107
H      5.897474    0.319195   -2.643738
H      6.416668   -1.363124   -2.370131
H      4.230158   -1.808887    0.596734
H      6.554483   -2.030671   -0.370488
H      5.116990    1.493433   -0.571803
H      5.899427    2.013224    0.924492
H      4.139649    2.200150    0.720281
H      6.491975    0.560444    1.997372
