61

C      7.169553    0.508559    0.626062
C      6.687763    1.802877    0.090041
C      5.348755    1.861558   -0.530783
C      4.257219    1.493194    0.409308
C      2.895900    1.639087   -0.305878
C      2.043537    0.667360    0.539966
N      2.865632   -0.452912    0.730861
C      2.679117   -1.581116   -0.141350
C      4.257435   -0.000424    0.637041
C      0.728651    0.569062   -0.045565
O      0.217969    1.617540   -0.560522
N     -0.110503   -0.565416   -0.131996
C     -1.436434   -0.530621   -0.762341
C     -1.438305   -1.231770   -2.080447
C     -2.728150   -1.254214   -2.800526
O     -0.517383   -0.587711   -2.913481
C     -2.417381   -1.026763    0.234905
O     -3.731427   -1.055606   -0.217752
C     -4.536172   -1.396511    0.866103
S     -6.120760   -2.091316    0.292566
C     -7.073240   -0.814333   -0.569484
C     -4.889396   -0.070233    1.553190
O     -5.465472   -0.314766    2.771936
C     -3.571340    0.683717    1.655372
O     -3.462815    1.708365    0.746775
C     -2.423648   -0.307133    1.556961
O     -1.256706    0.392334    1.833481
H      6.952612    0.383231    1.718547
H      8.316234    0.577012    0.597861
H      6.928448   -0.387448    0.045878
H      7.426545    2.241321   -0.646345
H      6.743877    2.539471    0.946082
H      5.291981    1.214994   -1.450243
H      5.136727    2.917484   -0.863820
H      4.259706    2.086891    1.322328
H      3.044722    1.275120   -1.330401
H      2.503542    2.643930   -0.273348
H      2.006110    1.196253    1.563942
H      2.145720   -1.337452   -1.059296
H      3.721380   -1.884179   -0.490205
H      2.338954   -2.468803    0.412995
H      4.649711   -0.505061   -0.273711
H      4.739165   -0.316466    1.570761
H      0.247727   -1.445600    0.293586
H     -1.682214    0.524603   -0.992061
H     -1.128984   -2.290047   -1.899768
H     -3.203620   -0.247805   -2.915640
H     -3.470069   -1.996226   -2.383736
H     -2.565471   -1.604669   -3.843245
H     -0.936472   -0.011362   -3.584784
H     -2.210672   -2.113015    0.500985
H     -4.038155   -2.101232    1.563672
H     -7.560683   -1.273194   -1.447969
H     -7.782139   -0.289287    0.084935
H     -6.386609   -0.029465   -0.996463
H     -5.528165    0.473571    0.838694
H     -6.409656   -0.516363    2.666362
H     -3.533580    1.100999    2.682222
H     -4.026008    1.612594   -0.036704
H     -2.566855   -0.996145    2.418978
H     -1.396206    1.363538    1.896112
