43

O     -0.001107    0.363137   -0.000000
N     -2.576658    1.426708   -1.563395
C     -2.624608    0.086573   -1.044494
C     -1.368383   -0.443772   -0.572965
O     -1.284362   -1.642480   -0.196046
N     -0.168431    0.313388   -0.497781
C      1.078329   -0.201224   -0.033262
C      2.311668    0.186909   -0.751596
C      3.085162   -0.807142   -1.528983
C      3.819056   -1.848802   -0.761181
C      4.760626   -1.192008    0.178525
C      4.231651   -0.137110    0.834972
N      2.892677    0.247727    0.594063
C      1.634680    0.724771    1.024590
O      1.237108    1.534007    1.883747
C      5.009849    0.619446    1.800378
O      4.526294    1.697716    2.496237
O      6.205274    0.248183    2.000257
Cl     6.388824   -1.684139    0.449170
C     -3.680684    0.051674   -0.001872
C     -3.549479   -0.487682    1.242459
C     -4.613567   -0.474158    2.154313
C     -5.798975    0.092420    1.779008
C     -5.935628    0.634152    0.534036
C     -4.901691    0.627717   -0.369147
H     -0.824985   -0.181947   -0.000000
H      0.826092   -0.181190    0.000000
H     -2.362621    1.449598   -2.577278
H     -2.089698    2.106166   -0.984119
H     -2.971421   -0.562854   -1.903286
H     -0.217838    1.302095   -0.803710
H      1.100819   -1.250955    0.284250
H      2.304100    1.179105   -1.257752
H      2.485954   -1.285181   -2.344789
H      3.877972   -0.237327   -2.103625
H      4.433231   -2.429316   -1.473078
H      3.160010   -2.579722   -0.251027
H      5.187054    2.327994    2.972213
H     -2.605201   -0.928859    1.526901
H     -4.465691   -0.912780    3.129239
H     -6.629643    0.109130    2.475293
H     -6.889341    1.083737    0.248046
H     -4.996414    1.056294   -1.365936
