58

Cl     0.000000    0.000000    0.000000
C     -4.577061   -1.408167    1.150331
N     -3.533743   -1.335693    0.126419
C     -3.156753   -2.712032   -0.163324
C     -2.416708   -0.624992    0.744986
C     -1.259515   -0.461703   -0.163882
C      0.024620   -0.573417    0.658912
C      1.151554   -0.769697   -0.388630
C      1.301095    0.561024   -0.989960
C      2.439298    1.223402   -1.063316
O      2.458644    2.462040   -1.652787
C      3.635525    0.603674   -0.505519
C      4.871461    1.281579   -0.582588
O      4.983812    2.511689   -1.154507
C      6.027504    0.679384   -0.056354
C      5.958981   -0.545637    0.522900
C      4.764733   -1.195493    0.595435
Cl     4.642250   -2.768417    1.340366
C      3.581780   -0.638014    0.085346
C      2.340693   -1.376896    0.210439
C      2.459781   -2.837835   -0.179596
O      2.084160   -1.425973    1.617808
C      0.048999    1.150691   -1.515025
O      0.140642    2.056734   -2.370878
C     -1.294569    0.713126   -1.069083
O     -1.971174    0.327645   -2.252126
C     -1.994886    1.891231   -0.566463
O     -1.758346    3.009034   -1.141519
C     -2.930750    1.827483    0.543085
C     -3.740337    2.852524    0.820132
N     -3.701808    4.045323    0.022101
O     -4.602881    2.707028    1.897659
C     -2.939849    0.604087    1.327616
O     -3.393407    0.611968    2.490450
H      0.000000    0.000000    0.000000
H     -5.262997   -2.277771    0.956377
H     -5.138411   -0.454118    1.193555
H     -4.145030   -1.592937    2.158239
H     -2.724883   -2.821420   -1.161902
H     -2.490218   -3.120459    0.642017
H     -4.085375   -3.316658   -0.113870
H     -2.087527   -1.296376    1.591944
H     -1.229881   -1.386601   -0.817447
H      0.254753    0.329919    1.219455
H     -0.031777   -1.504136    1.237818
H      0.711262   -1.443589   -1.209059
H      2.379480    2.599900   -2.654523
H      4.428042    3.151955   -1.574842
H      6.961392    1.196056   -0.116979
H      6.867680   -1.037668    0.945360
H      1.596604   -3.043816   -0.867242
H      3.347659   -3.032446   -0.817714
H      2.316528   -3.502979    0.662431
H      2.859732   -1.135842    2.131812
H     -1.349822    0.123097   -2.980171
H     -3.500157    4.943199    0.517503
H     -3.866995    4.025379   -1.009149
H     -5.453808    2.151612    1.727958
