46

C      2.024710    1.493736   -1.273757
C      1.393896    0.140599   -0.914541
C      2.521072   -0.851456   -1.008687
N      3.517090   -0.788412   -0.023372
C      3.103790   -1.148424    1.276522
C      4.549180    0.156838   -0.050944
O      0.707216    0.098271    0.176272
C     -0.561602    0.009570    0.480663
C     -0.552347    0.051397    2.045099
C     -1.347585   -1.221362    0.210602
C     -2.543994   -1.349969    0.943105
C     -3.369437   -2.432900    0.791432
C     -3.037346   -3.415958   -0.085492
C     -1.854937   -3.292924   -0.812774
C     -1.024037   -2.208790   -0.664314
C     -1.389469    1.211894    0.121872
C     -2.037892    1.253408   -1.088133
C     -2.797287    2.299006   -1.512558
C     -2.944801    3.401974   -0.697568
Cl    -3.925117    4.782181   -1.216179
C     -2.312493    3.399192    0.520060
C     -1.544238    2.317532    0.924142
H      2.644897    1.913238   -0.482102
H      1.239140    2.191869   -1.650173
H      2.678755    1.281957   -2.138425
H      0.731789   -0.022437   -1.825490
H      2.126769   -1.910177   -1.155220
H      3.069825   -0.712353   -2.009183
H      3.578720   -2.156889    1.504318
H      3.510194   -0.494556    2.084492
H      2.016914   -1.350448    1.403269
H      4.395600    0.914809    0.777619
H      5.557699   -0.307161    0.212692
H      4.669010    0.763108   -0.972976
H     -0.317445   -0.950262    2.411228
H     -1.471419    0.497774    2.413796
H      0.270715    0.735313    2.382866
H     -2.865311   -0.601641    1.646170
H     -4.294714   -2.509640    1.374415
H     -3.680686   -4.296803   -0.224625
H     -1.612944   -4.081944   -1.500682
H     -0.122170   -2.106740   -1.225858
H     -1.939819    0.393115   -1.757520
H     -3.284152    2.296232   -2.457420
H     -2.421192    4.250393    1.160190
H     -1.054549    2.357838    1.887167
