60

O     -0.001107    0.363137   -0.000000
O     -0.001107    0.363137   -0.000000
O     -0.001107    0.363137   -0.000000
C     -6.153582    2.239544    0.194350
C     -4.972188    1.681547   -0.600742
O     -5.451348    1.134720   -1.787192
C     -4.252135    0.614866    0.201800
C     -3.103492    0.051283   -0.534180
C     -1.736284    0.127886    0.086865
C     -1.790578    0.491818    1.553411
C     -1.267118   -1.276744    0.018874
C     -2.350906   -2.044530   -0.064748
N     -3.527828   -1.267383   -0.060507
C     -4.842146   -0.729662    0.041378
O     -5.962354   -1.299746   -0.005533
C     -2.300198   -3.487568   -0.146521
O     -1.101873   -4.196812   -0.145132
O     -3.364204   -4.142681   -0.222096
S      0.435624   -1.877473    0.033682
C      1.509710   -0.446318    0.104186
C      1.438958    0.401118   -1.145730
N      2.800142    0.419996   -1.699437
C      3.570058    0.433965   -0.469760
C      2.984914   -0.830735    0.178001
C      5.005980    0.354756   -0.676903
O      5.466838    0.264522   -1.838301
N      5.884413    0.379981    0.433205
C      7.315021    0.295775    0.231801
C      5.415712    0.492555    1.798690
H     -0.824985   -0.181947   -0.000000
H      0.826092   -0.181190    0.000000
H     -0.824985   -0.181947   -0.000000
H      0.826092   -0.181190    0.000000
H     -0.824985   -0.181947   -0.000000
H      0.826092   -0.181190    0.000000
H     -6.983386    1.505904    0.087058
H     -5.849851    2.402350    1.235335
H     -6.434515    3.196274   -0.275315
H     -4.311773    2.539976   -0.840356
H     -6.159986    1.714762   -2.185093
H     -4.117877    0.968489    1.227525
H     -3.161360    0.207056   -1.612417
H     -1.097754    0.833457   -0.450809
H     -0.852342    0.123141    2.016732
H     -1.845622    1.566127    1.743633
H     -2.598337   -0.091484    2.064284
H     -1.127715   -5.175223    0.021750
H      1.320001    0.141228    1.025637
H      1.232618    1.439937   -0.815962
H      0.703148    0.065186   -1.875222
H      2.931295   -0.538751   -2.124905
H      3.227338    1.281919    0.138131
H      3.318795   -0.956645    1.209415
H      3.192795   -1.706140   -0.479117
H      7.717363   -0.518659    0.860733
H      7.517042    0.162544   -0.844067
H      7.779299    1.287515    0.504240
H      5.374666   -0.458105    2.324745
H      6.133839    1.177609    2.341076
H      4.441181    1.046854    1.870666
