44

C      4.862299    0.556610    0.011547
N      3.916571    0.613928    1.106719
C      2.760987   -0.191205    0.889559
C      1.858864    0.355482   -0.246249
C      0.692778   -0.533948   -0.404746
C     -0.574993   -0.294162   -0.457259
C     -1.531157   -1.432488   -0.612787
C     -0.948569   -2.480312   -1.263754
C     -1.719893   -3.610483   -1.439376
C     -3.027101   -3.702661   -0.987168
C     -3.572370   -2.634379   -0.344218
C     -2.836219   -1.466170   -0.139846
C     -3.681822   -0.468741    0.535472
C     -3.040849    0.684523    1.200198
C     -2.166263    1.526296    0.368548
C     -2.512986    2.854790    0.356117
C     -1.752870    3.722900   -0.417978
C     -0.687399    3.240227   -1.144424
C     -0.321449    1.920604   -1.150129
C     -1.076285    1.074918   -0.381212
C      4.588104    0.104993    2.287891
H      4.472316    0.087100   -0.889062
H      5.268502    1.568946   -0.221342
H      5.772648   -0.045227    0.294928
H      3.097139   -1.188010    0.517741
H      2.148679   -0.290251    1.786526
H      2.504475    0.468727   -1.116268
H      1.575434    1.359257    0.129309
H      0.983029   -1.591822   -0.466132
H      0.079941   -2.423347   -1.656642
H     -1.275466   -4.447812   -1.950223
H     -3.620361   -4.608364   -1.136843
H     -4.590631   -2.698388    0.011197
H     -4.317141   -1.000161    1.289922
H     -4.402290   -0.025321   -0.231363
H     -2.490082    0.350377    2.131287
H     -3.867557    1.326573    1.612223
H     -3.356069    3.204828    0.936256
H     -2.017326    4.773165   -0.434304
H     -0.093424    3.918956   -1.747613
H      0.500398    1.503019   -1.753705
H      5.633314    0.502240    2.334283
H      4.686588   -1.005813    2.208125
H      4.078508    0.420607    3.221787
