54

C     -1.418598   -2.998554    1.154776
N     -2.341074   -2.117549    0.563216
C     -3.074806   -2.797686   -0.460299
C     -2.209457   -0.757372    0.484512
C     -1.153781   -0.114350   -0.366500
C      0.157528   -0.828255   -0.235540
O      0.128847   -2.030854   -0.900697
C      1.260406    0.017189   -0.951603
C      2.490374   -0.778094   -1.008086
C      2.559495   -1.834954   -1.809763
C      3.693490   -0.408459   -0.245368
C      4.824574   -1.215093   -0.310058
C      5.942271   -0.837978    0.420986
C      5.921233    0.289043    1.175238
C      4.795176    1.125718    1.262944
O      4.813528    2.228002    2.017329
C      3.687796    0.739023    0.530020
C      2.486389    1.545082    0.575826
C      1.411942    1.209273   -0.090360
C      0.198354    2.001071    0.036631
O      0.204941    3.194702    0.403133
C     -1.097072    1.356565   -0.284298
O     -1.385475    1.852002   -1.601293
C     -2.186335    1.997499    0.538366
O     -1.991780    2.994572    1.236557
C     -3.502337    1.379367    0.471935
C     -4.617022    2.102314    0.637679
N     -5.854861    1.412350    0.555541
O     -4.466149    3.452665    0.874063
C     -3.514890   -0.048699    0.221775
O     -4.554310   -0.588966   -0.177834
O      2.455952    2.708948    1.341737
H     -1.185074   -3.874844    0.468860
H     -1.976683   -3.582396    2.000850
H     -0.555033   -2.605258    1.677488
H     -2.428839   -3.648149   -0.821475
H     -3.243948   -2.181214   -1.369649
H     -4.009185   -3.287379   -0.107678
H     -1.944887   -0.390545    1.545240
H     -1.494112   -0.416947   -1.443520
H      0.541738   -0.857999    0.803451
H     -0.556582   -1.968758   -1.619939
H      0.935971    0.250365   -1.980965
H      1.713047   -2.099986   -2.415527
H      3.418144   -2.433462   -1.880139
H      4.864221   -2.115883   -0.899196
H      6.815601   -1.499350    0.345505
H      6.782756    0.597119    1.751568
H      4.345333    2.977307    2.327085
H     -1.421572    2.835685   -1.462995
H     -6.101673    0.614133    1.175675
H     -6.535191    1.734548   -0.165893
H     -4.163503    4.071768    0.131113
H      2.535122    3.632723    0.894488
