61

C     -6.861564   -0.483374   -0.900640
C     -5.811246   -0.382079    0.183027
C     -6.267269   -1.101530    1.422771
S     -4.257391   -1.059838   -0.461467
C     -3.834782    0.491110   -1.295677
C     -2.483611    1.032537   -1.140338
N     -1.612580    0.494208   -0.149475
C     -0.232156    0.336964   -0.466838
O      0.150161    0.695740   -1.637236
C      0.756271   -0.208104    0.481053
N      2.097333   -0.103050   -0.121920
C      3.143201    0.602690    0.492471
O      2.939065    1.164989    1.590287
N      4.411448    0.661056   -0.150176
C      4.818333    0.073614   -1.409944
C      6.267943   -0.316874   -1.108304
N      6.714185    0.853614   -0.382211
C      5.587590    1.339323    0.334394
O      5.591313    2.211966    1.241611
S      8.296635    1.532753   -0.380683
C      8.375352    2.947347    0.701025
O      9.339008    0.523458   -0.026116
O      8.572813    1.987759   -1.798894
C      0.528700   -1.662771    0.656538
C     -0.584902   -2.322814    0.208331
C     -0.754111   -3.698344    0.410567
C      0.195259   -4.443036    1.069435
C      1.321691   -3.801561    1.527819
C      1.475454   -2.452630    1.323158
C     -3.250391    2.253169   -0.690223
O     -2.921374    3.464910   -0.713644
N     -4.320313    1.436556   -0.308885
C     -5.465345    1.034861    0.394046
C     -6.605084    1.948392    0.048551
O     -7.873410    1.829282    0.574498
O     -6.381008    2.872142   -0.767878
H     -6.736806    0.384265   -1.576249
H     -6.770019   -1.434981   -1.477818
H     -7.856559   -0.380103   -0.426314
H     -7.064972   -0.465184    1.885329
H     -5.423764   -1.290726    2.116167
H     -6.766836   -2.040173    1.106127
H     -4.292604    0.550011   -2.291807
H     -1.993688    1.253907   -2.097019
H     -1.909555    0.203943    0.811074
H      0.777880    0.349064    1.441504
H      2.281261   -0.567055   -1.037482
H      4.852576    0.782976   -2.236701
H      4.212448   -0.828268   -1.636012
H      6.290847   -1.189947   -0.408174
H      6.820160   -0.513246   -2.032005
H      7.899795    2.682854    1.683808
H      9.414542    3.260841    0.808226
H      7.731735    3.732100    0.262657
H     -1.359054   -1.803305   -0.319831
H     -1.650529   -4.162185    0.036007
H      0.046896   -5.521928    1.219712
H      2.082983   -4.379391    2.052283
H      2.362534   -1.966631    1.688104
H     -5.370309    1.160320    1.522118
H     -8.644183    2.430405    0.352995
