74

C     -3.735923   -5.870376    0.484756
O     -3.444156   -4.521369    0.654680
C     -2.985043   -4.059008   -0.585222
C     -2.638697   -2.616487   -0.531626
O     -2.214928   -2.079640   -1.562588
O     -2.772432   -1.878084    0.604795
C     -2.485625   -0.519533    0.785489
C     -1.030671   -0.317457    0.468060
C     -0.056847   -1.088686    1.284986
N      1.267182   -0.773578    0.793318
C      1.544281   -1.260065   -0.504019
C      1.764620    0.503952    1.125794
C      3.141158    0.795157    0.607533
C      4.208844   -0.125859    1.095846
C      5.489257    0.328000    0.453079
N      5.925018   -0.141009   -0.747887
C      7.079110    0.441301   -1.054052
C      7.926030    0.310457   -2.158725
C      9.085881    1.030601   -2.254796
C      9.412907    1.897200   -1.236187
C      8.571479    2.021266   -0.147725
C      7.404721    1.302018   -0.043211
N      6.400855    1.202237    0.863863
C     -2.746616   -0.137950    2.195730
C     -2.752282    1.320696    2.473503
C     -2.741279    2.200223    1.308292
C     -2.489173    3.537188    1.524539
C     -2.448933    4.437970    0.476831
F     -2.197642    5.762966    0.709983
C     -2.660215    4.018633   -0.809800
C     -2.913314    2.676209   -1.025620
C     -2.954260    1.761583    0.043301
C     -3.228581    0.331400   -0.221442
C     -4.634017   -0.039529   -0.435042
C     -5.261536    0.879652   -1.461969
C     -5.539613   -0.076774    0.746114
H     -4.103958   -6.311701    1.419801
H     -2.837000   -6.437966    0.128483
H     -4.490892   -5.959362   -0.335155
H     -3.780544   -4.208536   -1.357107
H     -2.113649   -4.670976   -0.876999
H     -0.856602    0.792031    0.634307
H     -0.844632   -0.425290   -0.634608
H     -0.193136   -2.192690    1.110650
H     -0.121638   -0.942494    2.373451
H      1.703895   -0.406724   -1.195659
H      2.364565   -2.003156   -0.582076
H      0.627064   -1.793307   -0.895481
H      1.101642    1.287667    0.718681
H      1.780761    0.601781    2.232984
H      3.177568    0.881714   -0.488972
H      3.410220    1.824243    0.992143
H      4.049699   -1.181356    0.896980
H      4.404410   -0.002154    2.201287
H      5.438603   -0.850164   -1.348413
H      7.621992   -0.383252   -2.931101
H      9.751759    0.932670   -3.115683
H     10.341216    2.457432   -1.337723
H      8.840911    2.695976    0.629904
H     -3.710214   -0.556631    2.590292
H     -1.983575   -0.617807    2.840848
H     -3.617172    1.563547    3.158761
H     -1.858313    1.597714    3.113291
H     -2.309385    3.962439    2.510367
H     -2.639304    4.684649   -1.664259
H     -3.077249    2.314267   -2.034187
H     -2.700543    0.135970   -1.205174
H     -4.710428   -1.069863   -0.911526
H     -6.346578    0.579458   -1.492995
H     -5.235997    1.921731   -1.088621
H     -4.802766    0.756218   -2.458056
H     -5.383024    0.773481    1.424732
H     -5.595457   -1.069848    1.237521
H     -6.591813    0.066983    0.351117
