117

C      2.168737   -4.180682   -1.121512
C      1.555789   -2.821351   -0.991390
C      1.090393   -2.656647    0.463583
N      2.244997   -2.794014    1.297056
C      3.072488   -1.758148    1.788891
O      3.346414   -1.754793    3.033297
C      3.662155   -0.659720    0.985295
N      5.048512   -1.085431    0.685962
C      5.496542   -1.182500   -0.643762
O      4.650658   -0.883010   -1.535964
C      6.820969   -1.591065   -1.084657
N      7.070375   -1.641485   -2.431469
C      8.231755   -2.008801   -2.960634
C      9.287478   -2.372122   -2.157379
C      9.081024   -2.336069   -0.799667
C      7.854887   -1.947758   -0.254416
O      7.680760   -1.920350    1.110405
C      3.654773    0.620659    1.800972
C      2.263719    0.889111    2.258771
O      4.240473    1.690126    1.109147
C      3.819257    2.365538    0.019777
O      4.496061    2.400349   -1.066975
C      2.531003    3.151660   -0.068026
N      1.733651    2.522238   -1.086364
C      0.435309    2.001944   -1.003025
O      0.264479    0.755922   -1.320054
C     -0.803889    2.696655   -0.593574
C     -0.861901    4.138054   -1.051285
C     -2.058510    4.737109   -0.353558
O     -2.993874    5.224606   -0.954091
C     -2.100878    4.734084    1.132891
C     -0.956368    3.863522    1.599967
N     -1.076144    2.608627    0.844125
C     -1.440483    1.448552    1.524278
O     -0.918163    1.214755    2.636470
C     -2.443237    0.436630    0.998426
C     -3.810922    1.023240    0.985104
C     -4.897193    0.188931    0.462587
C     -5.253115    0.287682   -0.890577
C     -6.265799   -0.480536   -1.418131
C     -6.971636   -1.376004   -0.646563
C     -6.633644   -1.483228    0.681125
C     -5.617087   -0.708302    1.200693
N     -8.028687   -2.171207   -1.215604
C     -8.698142   -3.117589   -0.355372
C     -8.444845   -2.063560   -2.590779
N     -2.363812   -0.685738    1.908170
C     -2.731232   -0.399944    3.304535
C     -1.942744   -1.993194    1.617162
O     -1.106820   -2.514978    2.466357
C     -2.246292   -2.906603    0.551718
C     -2.506761   -2.427059   -0.821631
C     -2.590110   -3.781142   -1.566843
C     -1.949292   -4.795615   -0.605032
N     -1.173341   -3.870797    0.247836
C      0.142553   -3.812717    0.682324
O      0.593775   -4.804845    1.311750
C      2.844375    4.573235   -0.407379
C      2.723738    5.561770    0.543759
C      2.995930    6.884527    0.287378
C      3.409562    7.249955   -0.977464
C      3.535364    6.262972   -1.946452
C      3.257660    4.941634   -1.669127
H      2.883173   -4.437147   -0.329519
H      2.557243   -4.357961   -2.146381
H      1.320088   -4.917041   -1.006557
H      0.607463   -2.859147   -1.606476
H      2.122137   -1.988367   -1.375683
H      0.600661   -1.686028    0.501102
H      2.503096   -3.794726    1.574900
H      3.137682   -0.432992    0.059010
H      5.674562   -1.308792    1.479412
H      8.364744   -2.026737   -4.052621
H     10.240308   -2.674820   -2.556652
H      9.861680   -2.606540   -0.111640
H      8.330820   -2.161140    1.814396
H      4.280395    0.418059    2.695047
H      1.958517    0.092313    2.965479
H      2.200573    1.830658    2.862716
H      1.527828    0.862186    1.433720
H      1.999503    3.143205    0.871542
H      2.214763    2.438763   -2.037900
H     -1.687588    2.236257   -1.154925
H      0.035212    4.718948   -0.860411
H     -1.098850    4.152633   -2.153300
H     -3.042865    4.250578    1.475408
H     -2.007700    5.747096    1.572119
H     -0.027010    4.354140    1.247156
H     -0.905915    3.718749    2.667073
H     -2.084447    0.186818   -0.016843
H     -3.730832    1.960853    0.352161
H     -4.053966    1.332582    2.046629
H     -4.690179    0.996010   -1.486556
H     -6.535135   -0.399695   -2.463611
H     -7.177745   -2.180501    1.292703
H     -5.385768   -0.822672    2.264290
H     -9.546855   -3.613441   -0.886081
H     -9.135765   -2.670799    0.554799
H     -7.961205   -3.915398   -0.123942
H     -7.776829   -2.648623   -3.260557
H     -8.440181   -0.986125   -2.912070
H     -9.474947   -2.405041   -2.703759
H     -3.524080   -1.026810    3.699313
H     -1.807057   -0.641132    3.922032
H     -2.955153    0.631290    3.523235
H     -3.129187   -3.558675    0.834225
H     -3.431398   -1.864436   -0.955892
H     -1.623479   -1.927628   -1.285738
H     -2.028979   -3.781001   -2.497730
H     -3.620532   -4.065200   -1.768896
H     -1.365620   -5.556446   -1.094974
H     -2.710185   -5.245119    0.057159
H      2.402420    5.328141    1.555478
H      2.886472    7.644015    1.077649
H      3.615607    8.295499   -1.148163
H      3.860967    6.567360   -2.934089
H      3.352844    4.166945   -2.418843
