74

C     -1.158690    5.052898    0.177787
C     -2.030208    3.902029    0.578016
N     -1.713996    2.696371   -0.077657
C     -0.497065    2.022035    0.247301
C      0.771218    2.731754   -0.043743
C      1.901245    1.823883    0.409100
N      3.120867    2.597906    0.285998
C      1.957193    0.544028   -0.329388
O      2.620644   -0.386195    0.485141
C      3.816251   -0.831496   -0.055742
O      4.881628   -0.627200    0.848007
C      6.143563   -1.071763    0.461546
C      6.242774   -2.050223   -0.396335
C      5.062439   -2.719061   -0.985698
C      3.776735   -2.331645   -0.320822
N      3.677452   -3.079353    0.915552
C      7.375415   -0.430446    1.027484
N      8.536832   -1.077090    0.465078
C      0.656889   -0.006876   -0.785042
O      0.688234   -0.109002   -2.199504
C     -0.582138    0.643184   -0.356493
O     -1.307088   -0.141225    0.549673
C     -2.530670   -0.527081    0.059166
O     -2.532257   -1.922130   -0.087884
C     -3.626742   -2.233533   -0.857571
C     -4.927311   -2.040785   -0.137645
C     -5.352416   -3.415833    0.378269
O     -5.931545   -1.644028   -1.019965
C     -4.775631   -1.135141    1.037718
N     -6.018179   -0.461026    1.382337
C     -6.500089    0.408849    0.331157
C     -3.675031   -0.130722    0.940316
O     -3.154806    0.071048    2.235694
H     -0.585591    4.887750   -0.749524
H     -1.846999    5.920388   -0.075177
H     -0.541119    5.470656    1.011245
H     -3.091610    4.166501    0.268911
H     -2.109539    3.801853    1.689562
H     -1.737337    2.810440   -1.135255
H     -0.516330    1.894692    1.382153
H      0.848136    3.621154    0.626273
H      0.899606    3.061972   -1.086500
H      1.737807    1.646941    1.500167
H      2.868393    3.589767    0.573680
H      3.326318    2.676745   -0.738561
H      2.638397    0.682021   -1.205097
H      3.972868   -0.339789   -1.028457
H      7.210907   -2.441865   -0.737376
H      5.004398   -2.395716   -2.060096
H      5.221032   -3.830125   -1.006370
H      2.938742   -2.632354   -0.980101
H      4.425971   -3.810497    0.991586
H      3.658922   -2.440814    1.746881
H      7.413564    0.634261    0.697264
H      7.365030   -0.445953    2.119988
H      8.608723   -2.083260    0.725981
H      8.548187   -0.915993   -0.566454
H      0.608011   -1.090456   -0.460793
H     -0.057115    0.408319   -2.554731
H     -1.271410    0.743705   -1.252015
H     -2.662476   -0.122911   -0.983632
H     -3.642271   -1.599012   -1.766554
H     -3.502720   -3.287240   -1.195676
H     -4.565964   -3.843910    1.032646
H     -5.481958   -4.083583   -0.487794
H     -6.314728   -3.269434    0.949390
H     -6.220077   -2.396546   -1.599992
H     -4.553756   -1.784821    1.935594
H     -5.828424    0.037543    2.279162
H     -5.748300    0.609658   -0.455114
H     -6.700578    1.404262    0.826551
H     -7.409872    0.029466   -0.165707
H     -4.025100    0.870575    0.606329
H     -3.797253   -0.276518    2.917808
