64

C     -7.033618   -0.909742   -0.844304
O     -5.643851   -0.639593   -0.841274
C     -5.167410    0.644176   -1.130973
O     -6.040471    1.504943   -1.384389
C     -3.722954    0.945808   -1.132978
C     -3.356826    2.170405   -1.413827
C     -4.308118    3.279670   -1.732005
N     -1.974702    2.461183   -1.415398
C     -0.995591    1.483467   -1.127380
C     -1.378648    0.268262   -0.849822
C     -2.793228   -0.162452   -0.815779
C     -3.122902   -0.611074    0.578132
C     -3.041771    0.311189    1.615632
C     -3.344981   -0.102916    2.898595
C     -3.722823   -1.406446    3.157579
C     -3.809851   -2.334418    2.148416
C     -3.501707   -1.900132    0.867908
N     -4.197139   -3.664692    2.425826
O     -4.485106   -4.011895    3.720295
O     -4.294084   -4.548101    1.562979
C     -0.355511   -0.739437   -0.549212
O     -0.745255   -1.920584   -0.280993
O      1.006233   -0.458594   -0.545390
C      1.890005   -1.510171   -0.240444
C      3.336374   -1.056230   -0.272401
N      3.621664   -0.022195    0.647844
C      3.583728   -0.322171    2.027609
C      4.423103    1.058421    0.215013
C      5.766836    0.583116   -0.197338
C      6.486941    1.279596   -1.174071
C      7.735313    0.850235   -1.559082
C      8.324426   -0.276925   -1.001667
C      7.635881   -0.961970   -0.052414
C      6.382877   -0.527137    0.331008
C      0.437939    1.903257   -1.158166
H     -7.216097   -1.997810   -0.928865
H     -7.581131   -0.321133   -1.610644
H     -7.434685   -0.552050    0.139457
H     -3.745229    4.229868   -1.874798
H     -4.935043    3.468405   -0.823613
H     -4.898117    3.089731   -2.641466
H     -1.650145    3.445555   -1.639120
H     -2.937127   -1.041643   -1.474711
H     -2.743954    1.319150    1.380857
H     -3.273953    0.636643    3.689289
H     -3.950466   -1.678039    4.192446
H     -3.571522   -2.636188    0.073924
H      1.654248   -1.936120    0.737883
H      1.754891   -2.291681   -1.027940
H      3.672013   -0.808610   -1.292119
H      3.929659   -1.967208    0.017019
H      3.767413   -1.417360    2.209094
H      4.443424    0.199746    2.530945
H      2.645195    0.004614    2.541674
H      4.535641    1.823090    1.035415
H      3.925802    1.606246   -0.628515
H      6.035861    2.159576   -1.614072
H      8.303509    1.395695   -2.326264
H      9.300689   -0.630736   -1.289171
H      8.041400   -1.860828    0.429022
H      5.859093   -1.084315    1.087625
H      1.022286    1.380527   -1.932647
H      0.934389    1.815922   -0.185101
H      0.517182    2.992103   -1.439588
