54

C     -2.042687   -2.982542   -0.360900
N     -2.811171   -1.827469   -0.427100
C     -3.561105   -1.666833   -1.664021
C     -2.528065   -0.627607    0.240192
C     -1.316368    0.092435   -0.252445
C     -0.118304   -0.792862   -0.285192
C      1.123663    0.105118   -0.622557
C      2.208426   -0.663389   -1.212174
C      3.535613   -0.457945   -0.619939
C      4.628658   -1.049577   -1.296956
C      5.875994   -0.923820   -0.742174
C      6.103852   -0.251125    0.435982
C      5.019475    0.313035    1.068869
O      5.174202    0.997600    2.247076
C      3.734626    0.216763    0.550226
C      2.576212    0.850472    1.170050
C      1.387664    0.802584    0.649634
C      0.194726    1.404205    1.271952
O      0.302009    1.868366    2.427868
C     -1.039089    1.403710    0.457579
O     -0.807056    2.370738   -0.554649
C     -2.193690    1.937435    1.212522
O     -2.011251    2.732193    2.162616
C     -3.571870    1.565955    0.887167
C     -4.596859    2.344743    1.194613
N     -5.910826    1.952809    0.864529
O     -4.387323    3.547867    1.842472
C     -3.730691    0.288853    0.210437
O     -4.802564    0.020829   -0.337227
O      2.761506    1.529703    2.364408
N      4.483355   -1.753082   -2.504432
O      3.359425   -2.416682   -2.908851
O      5.461948   -1.783850   -3.290140
H     -1.635409   -3.255239   -1.362235
H     -1.264471   -2.949819    0.395588
H     -2.744420   -3.868492   -0.069587
H     -4.599889   -1.964911   -1.543462
H     -3.121633   -2.362233   -2.430108
H     -3.386847   -0.651464   -2.067009
H     -2.414739   -0.859153    1.344762
H     -1.586258    0.376564   -1.333927
H      0.125642   -1.183741    0.703221
H     -0.195962   -1.516435   -1.106218
H      0.705042    0.822675   -1.384323
H      2.252936   -0.409165   -2.325957
H      1.933080   -1.778621   -1.177242
H      6.732802   -1.371243   -1.243167
H      7.108352   -0.194839    0.807246
H      6.075029    1.094897    2.658279
H     -1.476670    2.278301   -1.273617
H     -6.177934    1.892761   -0.132699
H     -6.612555    1.726134    1.587678
H     -5.040687    3.948744    2.507917
H      2.822155    1.076651    3.265422
