50

C      7.028130   -2.408136    1.838585
C      5.945015   -2.788054    0.881574
O      6.015191   -3.809478    0.158997
O      4.841984   -1.980043    0.802673
C      3.737700   -2.211425   -0.058109
O      2.828915   -1.152602    0.175388
C      3.254202    0.132974   -0.052340
O      4.423798    0.328122   -0.456451
C      2.395235    1.330449    0.155310
N      1.118053    1.032227    0.673204
C      0.005017    1.726716    0.074780
S      0.624369    1.878951   -1.645797
C      2.356935    2.112912   -1.076297
C      2.483384    3.626344   -0.824417
C      3.325402    1.753175   -2.157022
C     -0.789809    0.501120    0.368441
N     -2.137842    0.852008    0.788197
C     -3.262960    0.178843    0.272119
O     -3.069747   -0.738560   -0.566883
C     -4.664759    0.534469    0.703202
C     -5.649169   -0.334994    0.002954
C     -6.054669   -1.550965    0.523420
C     -6.967469   -2.360965   -0.122260
C     -7.517833   -1.978783   -1.331706
C     -7.123835   -0.769593   -1.863380
C     -6.208518    0.029810   -1.204262
C      0.180359    0.408387    1.494036
O      0.104415   -0.048438    2.647416
H      6.560430   -2.015986    2.755491
H      7.694304   -3.243074    2.075406
H      7.584381   -1.553628    1.387690
H      3.206262   -3.145615    0.217507
H      4.014149   -2.174467   -1.132477
H      2.947662    1.932182    0.943651
H     -0.318616    2.659783    0.528851
H      1.862601    4.200084   -1.550543
H      2.169176    3.817618    0.218343
H      3.525095    3.967074   -0.950590
H      3.322202    0.708837   -2.461065
H      4.342526    2.129787   -1.902326
H      3.055111    2.329789   -3.090346
H     -0.734487   -0.304568   -0.365258
H     -2.252759    1.608128    1.476109
H     -4.822932    1.594557    0.452933
H     -4.754654    0.454984    1.817345
H     -5.637687   -1.874541    1.471495
H     -7.295214   -3.315902    0.271294
H     -8.234191   -2.586251   -1.866123
H     -7.553956   -0.470919   -2.808723
H     -5.900897    0.987655   -1.632520
