42

Na     0.000000    0.000000    0.000000
C     -4.160018    1.759366    0.017672
C     -3.987258    0.629567    0.977724
C     -5.052081    0.510927    2.006929
S     -2.314153    0.760309    1.737034
C     -1.502284   -0.554587    0.765069
C     -0.426404   -0.066801   -0.155604
N      0.784585   -0.815420   -0.199803
C      2.083652   -0.275137   -0.247117
O      2.228149    0.949400   -0.252286
C      3.264758   -1.172125   -0.290245
C      4.530854   -0.406094   -0.336461
C      5.156778   -0.053791    0.836284
C      6.340042    0.662218    0.791048
C      6.901682    1.028210   -0.412849
C      6.265207    0.669313   -1.575777
C      5.079292   -0.047980   -1.544890
C     -1.358756   -0.552659   -1.240998
O     -1.111276   -0.783301   -2.456163
N     -2.457054   -0.607704   -0.357441
C     -3.782930   -0.674443    0.190638
C     -4.783190   -0.829478   -0.865936
O     -4.370821   -0.891531   -2.195901
O     -6.008592   -0.911460   -0.647393
H     -4.708105    2.625972    0.438358
H     -3.147244    2.145856   -0.270317
H     -4.697166    1.372235   -0.893099
H     -4.700478    0.686521    3.051989
H     -5.826053    1.301541    1.780259
H     -5.591854   -0.452640    2.013343
H     -1.362831   -1.502373    1.271170
H     -0.361551    1.022367   -0.157658
H      0.705017   -1.863297   -0.196979
H      3.229295   -1.864105    0.573627
H      3.225491   -1.772989   -1.239173
H      4.742925   -0.325464    1.814520
H      6.850141    0.950559    1.691354
H      7.840330    1.596180   -0.447001
H      6.661002    0.929898   -2.544412
H      4.570468   -0.335411   -2.451733
H     -3.786463   -1.522765    0.919885
H     -4.963108   -1.318881   -2.915913
