100

C     -2.759662    1.077481    2.572561
N     -3.573203    0.086298    1.971154
C     -3.798547   -1.105536    2.713522
C     -3.518569   -0.037620    0.563135
C     -3.976706    1.178908   -0.210422
C     -5.282120    1.659629    0.275414
C     -6.448354    1.444330   -0.679933
C     -6.248998    0.109234   -1.288064
C     -7.158155   -0.870391   -1.220637
O     -6.900532   -2.097307   -1.814722
C     -8.426834   -0.694125   -0.537880
C     -9.359222   -1.699343   -0.460846
O     -9.110385   -2.953338   -1.058789
C    -10.563451   -1.497535    0.207421
C    -10.788697   -0.270167    0.783543
C     -9.854350    0.727500    0.702615
C     -8.669859    0.516689    0.040564
C     -7.733607    1.664707    0.008363
C     -8.505824    2.815194   -0.634535
O     -7.484817    2.101690    1.331166
C     -4.978309   -0.084245   -1.983917
O     -4.855502   -1.043529   -2.782840
C     -3.896789    0.898752   -1.683610
O     -4.140456    2.113248   -2.368517
C     -2.579620    0.442758   -2.109431
O     -2.153811    0.660757   -3.298835
C     -1.700541   -0.273389   -1.206459
C     -0.547713   -0.816879   -1.639036
O     -0.197020   -0.688227   -2.972311
N      0.267314   -1.506535   -0.692529
C      1.606253   -0.976985   -0.517888
N      2.364269   -1.668810    0.454592
C      3.718833   -1.199017    0.660860
C      4.510356   -1.432172   -0.551084
O      4.070745   -1.886740   -1.647494
N      5.924563   -1.126259   -0.507541
C      6.773532   -1.325025   -1.638513
C      8.117168   -1.938345   -1.382609
S      8.443548   -2.395786    0.365005
C      9.855248   -1.250813    0.637289
C     11.045887   -2.070424    1.013706
C      9.513396   -0.187464    1.623082
C     10.052070   -0.735981   -0.771250
N      8.755108   -0.605549   -1.363130
C      7.573416   -0.106316   -1.974648
O      7.231998    0.940732   -2.586085
C     10.813561    0.506408   -0.858200
O     12.089340    0.695555   -0.387443
O     10.267730    1.514665   -1.414353
C      3.664779    0.246824    0.960188
C      4.352406    1.174952    0.263103
C      4.287554    2.541558    0.582840
C      3.515751    2.954451    1.618996
C      2.802777    1.995317    2.341467
C      2.879670    0.659646    2.012588
C     -2.102678   -0.386386    0.186965
O     -1.291777   -0.765230    1.056297
H     -3.318780    1.887939    3.081633
H     -2.154169    0.584887    3.384736
H     -2.041294    1.453751    1.834084
H     -4.597899   -1.004905    3.474451
H     -3.959510   -1.998948    2.056793
H     -2.862151   -1.345199    3.285790
H     -4.126977   -0.934163    0.275786
H     -3.202069    1.973273   -0.002305
H     -5.569407    1.135144    1.221638
H     -5.257247    2.773558    0.460713
H     -6.381919    2.182873   -1.536718
H     -6.069861   -2.584602   -1.511829
H     -9.834789   -3.646941   -0.963685
H    -11.309824   -2.290714    0.274108
H    -11.725534   -0.062622    1.323385
H    -10.081200    1.696761    1.181584
H     -9.090990    2.417434   -1.483929
H     -7.816226    3.586457   -1.043467
H     -9.172644    3.295409    0.102229
H     -7.724498    1.411371    1.992045
H     -3.789992    2.075448   -3.285091
H      0.354352    0.130307   -3.226682
H     -0.078217   -2.321815   -0.176895
H      2.061173   -0.881726   -1.511722
H      1.510607    0.091595   -0.146892
H      1.867127   -1.695492    1.348433
H      4.157130   -1.763012    1.533008
H      6.335157   -0.755422    0.373278
H      6.299178   -1.717488   -2.549506
H      8.511695   -2.627213   -2.125267
H     11.945849   -1.590151    0.562584
H     10.917366   -3.088399    0.553522
H     11.155710   -2.181071    2.119299
H      9.123740   -0.670488    2.549860
H     10.468247    0.311653    1.923129
H      8.792817    0.546580    1.242355
H     10.600117   -1.531914   -1.339849
H     12.361542    1.605300   -0.037977
H      4.974057    0.944426   -0.574370
H      4.846890    3.267470    0.011105
H      3.456824    4.019408    1.878419
H      2.204284    2.340179    3.147951
H      2.330170   -0.070755    2.571067
