45

C      2.736661   -2.268581   -1.296824
C      2.800464   -0.963606   -0.517789
O      3.743965   -0.144599   -1.152343
C      4.861479    0.421034   -0.580422
C      5.642186    1.198469   -1.431852
C      6.776063    1.796794   -0.931443
C      7.146895    1.638781    0.389661
C      6.356084    0.863548    1.211987
C      5.221148    0.256938    0.736386
C      1.445527   -0.335320   -0.687789
O      1.311958    0.758923   -1.323098
N      0.268631   -0.908402   -0.165068
C     -1.015396   -0.308027   -0.329137
C     -1.903455   -0.244474    0.871478
S     -2.593598    1.428551    1.141741
C     -4.368071    1.000384    0.909671
C     -4.920449    1.588593   -0.339775
C     -5.087809    1.384964    2.156386
C     -4.240569   -0.525172    0.833413
N     -3.034388   -0.807081    0.107196
C     -2.086504   -1.245207   -0.844933
O     -2.007500   -2.065628   -1.795464
C     -5.401833   -1.150711    0.212081
O     -5.294651   -1.910704   -0.934557
O     -6.534649   -0.995266    0.733288
H      1.918556   -2.918304   -0.936771
H      3.675037   -2.844880   -1.218489
H      2.623583   -1.984045   -2.362852
H      3.025988   -1.134104    0.529339
H      5.410129    1.359024   -2.460315
H      7.394013    2.404146   -1.579151
H      8.038016    2.126678    0.725119
H      6.692083    0.771697    2.241132
H      4.632399   -0.339856    1.412897
H      0.337368   -1.806723    0.362718
H     -1.019219    0.636371   -0.894312
H     -1.645056   -0.806078    1.758902
H     -4.184065    1.586152   -1.155165
H     -5.219620    2.619900   -0.151911
H     -5.809784    1.022403   -0.669890
H     -4.378362    1.202343    3.015559
H     -5.286963    2.469411    2.158543
H     -6.000397    0.789400    2.342438
H     -4.117609   -0.906682    1.861412
H     -5.908287   -2.711056   -1.090984
