80

C     -2.871260   -3.883291   -0.356136
N     -1.939053   -2.857070   -0.548493
C     -1.694842   -2.488119   -1.867941
C     -1.294280   -2.228384    0.529224
C     -2.074772   -1.401405    1.475272
C     -3.541341   -1.263299    1.276925
C     -3.984921   -0.286562    0.234015
C     -3.261281    1.002391    0.263789
C     -3.843003    2.138063   -0.035774
O     -3.090804    3.329152   -0.009117
C     -5.247736    2.235725   -0.374670
C     -5.837058    3.422278   -0.803875
O     -5.102795    4.591635   -0.826183
C     -7.155276    3.457437   -1.214005
C     -7.887332    2.303410   -1.196215
C     -7.295351    1.123022   -0.766418
C     -5.985886    1.079095   -0.354157
C     -5.464519   -0.193064    0.203198
C     -6.123400   -1.354738   -0.458222
O     -5.912363   -0.222151    1.558496
C     -1.877316    0.975796    0.701188
O     -1.054331    1.773492    0.217091
C     -1.495406   -0.015588    1.723546
O     -2.092172    0.419416    2.938172
C     -0.045359   -0.035762    2.007483
O      0.513319    0.526758    2.980816
C      0.765147   -0.784720    1.049469
C      2.102922   -0.681830    1.044449
O      2.649085    0.165947    1.992035
N      2.787185   -1.443022    0.084733
C      3.729001   -0.902781   -0.837041
N      4.972525   -0.458357   -0.400470
C      5.173486    0.614350    0.457724
C      6.454196    1.404711    0.165483
N      7.610508    0.583739    0.026098
C      8.537614    1.282036   -0.866014
C      9.010846    2.504858   -0.094397
O      9.634474    2.047793    1.064221
C      7.375689   -0.774548   -0.351144
C      6.084264   -0.988350   -1.115783
C      0.038890   -1.637778    0.140198
O      0.501463   -1.898478   -0.973047
H     -2.954224   -4.188529    0.729429
H     -3.870889   -3.656383   -0.736685
H     -2.558337   -4.863997   -0.836961
H     -1.490504   -1.418535   -2.075215
H     -2.617249   -2.705674   -2.488728
H     -0.927015   -3.170670   -2.310119
H     -0.893166   -3.156947    1.144462
H     -1.979729   -1.882115    2.508863
H     -4.080424   -2.189745    1.123786
H     -3.937551   -0.827702    2.255375
H     -3.712057   -0.703738   -0.811241
H     -3.368816    4.047846    0.649852
H     -5.523822    5.453901   -1.139623
H     -7.634248    4.387752   -1.554782
H     -8.901234    2.315835   -1.509939
H     -7.937153    0.262851   -0.783872
H     -7.175519   -1.409929   -0.033877
H     -5.682590   -2.332452   -0.109045
H     -6.219390   -1.294456   -1.542807
H     -5.919244   -1.177759    1.804264
H     -1.962598    1.416352    2.926066
H      3.196209   -0.279737    2.726222
H      2.611275   -2.486009    0.022743
H      3.234423   -0.013567   -1.385654
H      3.869008   -1.620179   -1.715832
H      5.238642    0.256834    1.508208
H      4.370733    1.371102    0.374717
H      6.297577    2.112641   -0.655508
H      6.607518    2.020860    1.100885
H      9.425369    0.699063   -1.109815
H      8.000030    1.666727   -1.757189
H      9.721212    3.110885   -0.712281
H      8.163058    3.148625    0.233068
H      9.218659    1.236982    1.417393
H      7.305502   -1.376106    0.591464
H      8.192813   -1.221267   -0.948672
H      5.954404   -2.096177   -1.183911
H      6.170566   -0.618388   -2.144213
