82

C     -5.777897    3.550510   -4.413512
O     -5.188101    2.705436   -3.444592
C     -5.845582    2.553476   -2.233300
C     -7.049527    3.209963   -1.971216
C     -7.649984    3.016074   -0.749011
C     -7.065327    2.192231    0.180840
C     -5.872191    1.534093   -0.063018
C     -5.256532    0.667521    0.913290
O     -5.800775    0.490950    2.022267
C     -3.994855    0.005754    0.583014
C     -3.397332   -0.831764    1.520429
O     -4.058274   -0.973769    2.717606
C     -2.223532   -1.442149    1.198271
C     -1.544917   -2.354164    2.160044
C     -1.213688   -3.637864    1.415947
O     -0.554043   -4.470910    2.331320
C     -0.410694   -3.392072    0.185116
C     -0.321544   -1.973350   -0.263548
O      0.682384   -1.248382    0.352987
C      1.600837   -0.699836   -0.501141
C      1.689770    0.804993   -0.425620
C      2.278961    1.150535    0.920424
N      2.335769    2.584804    1.041633
C      3.625871    0.493112    1.102998
O      4.563914    0.897921    0.174014
C      5.672299    1.505660    0.759473
C      6.960081    0.829809    0.456375
C      8.096071    1.837868    0.643138
C      7.922002    2.970546   -0.363258
C      6.468029    3.009095   -0.827321
O      5.697701    2.814966    0.315691
C      3.410193   -1.004152    0.910618
C      4.695797   -1.770452    1.132067
O      2.812541   -1.296812   -0.283550
C     -1.588500   -1.274465   -0.014391
C     -2.168809   -0.451523   -0.943731
O     -1.659494   -0.188108   -2.183831
C     -3.379972    0.187635   -0.633356
C     -4.023638    1.067838   -1.599943
O     -3.453890    1.233743   -2.721766
C     -5.276354    1.725196   -1.272805
C     -2.520921   -4.293321    1.117208
O     -3.264148   -3.728014    0.334395
C     -2.951569   -5.573252    1.713812
O     -4.207761   -5.949725    1.259753
H     -5.236740    3.441327   -5.395665
H     -6.829444    3.289527   -4.623732
H     -5.711962    4.577818   -4.023062
H     -7.464103    3.841332   -2.730810
H     -8.582401    3.543648   -0.584082
H     -7.550127    2.058983    1.117644
H     -3.782278   -1.514996    3.483893
H     -2.267846   -2.640578    2.934123
H     -0.653786   -1.895743    2.614793
H      0.284481   -4.103281    2.654521
H     -0.910121   -3.966621   -0.649496
H      0.574826   -3.883537    0.312234
H     -0.123420   -1.936354   -1.370307
H      1.283670   -0.993968   -1.543831
H      2.405800    1.114459   -1.227617
H      0.723760    1.301326   -0.501993
H      1.607806    0.751581    1.686293
H      2.787324    3.038865    0.203712
H      1.416991    2.984765    1.286360
H      3.947875    0.728974    2.131491
H      5.579877    1.550546    1.867903
H      7.033903    0.451926   -0.584645
H      7.193134   -0.017678    1.131628
H      9.087794    1.384582    0.455496
H      8.110217    2.281258    1.640936
H      8.539836    2.726703   -1.240585
H      8.194172    3.952978    0.029396
H      6.256232    2.173641   -1.533304
H      6.198847    3.996823   -1.249927
H      2.718933   -1.320417    1.721179
H      5.319289   -1.799068    0.210556
H      5.327175   -1.304693    1.917297
H      4.521386   -2.813320    1.434805
H     -0.831178   -0.533504   -2.578985
H     -2.216088   -6.368460    1.599256
H     -3.052416   -5.403034    2.825819
H     -4.693786   -5.181453    0.844912
