62

C     -4.777539    2.515109   -1.847671
C     -4.081772    1.270430   -1.350751
C     -4.897915    0.030357   -1.528852
S     -2.457092    1.063261   -2.138174
C     -1.450921    0.833464   -0.606828
C     -0.936556   -0.529201   -0.423477
N      0.472845   -0.686297   -0.110799
C      1.107437   -0.053161    0.991916
C      1.503059    1.353398    0.851927
O      1.747601    2.012153    1.931711
N      1.663940    2.106377   -0.326520
C      2.066858    3.471524   -0.333463
O      2.290293    4.032402    0.771062
C      2.208463    4.179451   -1.625119
N      2.618704    5.540921   -1.470358
C      2.213691   -0.844333    1.624181
C      2.216108   -1.191806    2.965008
C      3.247813   -1.891528    3.539007
C      4.334261   -2.281277    2.799137
C      4.361355   -1.950445    1.462916
C      3.305381   -1.240207    0.899433
C      1.158173   -1.574679   -1.017822
N      1.583119   -1.150874   -2.129596
C      1.344011   -2.965750   -0.653787
C      0.860050   -3.516836    0.506726
C      1.087470   -4.843627    0.782111
N      1.775626   -5.626157   -0.058129
C      2.266517   -5.128864   -1.204016
C      2.057237   -3.802856   -1.511496
C     -1.736311   -0.524106    0.833658
O     -1.712649   -1.170903    1.903003
N     -2.574037    0.541680    0.334984
C     -3.646850    1.474522    0.101644
C     -4.755390    1.200922    1.009423
O     -5.925642    1.956293    0.998818
O     -4.678128    0.256949    1.839755
H     -4.112583    3.375709   -1.570040
H     -4.855713    2.509069   -2.940603
H     -5.721445    2.617965   -1.313071
H     -4.772848   -0.321446   -2.594144
H     -4.423305   -0.770330   -0.912211
H     -5.946904    0.156205   -1.250053
H     -0.901948    1.715051   -0.317173
H     -1.324849   -1.300794   -1.136166
H      0.311630   -0.034135    1.821453
H      1.486852    1.666334   -1.228124
H      2.873533    3.653399   -2.330212
H      1.183873    4.196168   -2.084770
H      3.650703    5.682367   -1.571433
H      2.202971    6.021183   -0.661982
H      1.345508   -0.875628    3.544182
H      3.205075   -2.137250    4.579305
H      5.167826   -2.845379    3.257297
H      5.221614   -2.260949    0.884463
H      3.419751   -1.019646   -0.139783
H      1.539630   -0.225709   -2.562973
H      0.281513   -2.899797    1.219553
H      0.679510   -5.247945    1.729734
H      2.819746   -5.768159   -1.874463
H      2.453049   -3.405748   -2.433463
H     -3.244395    2.504015    0.179382
H     -6.398004    2.149149    1.895734
