55

C     -7.214920    1.149263    2.732215
O     -6.884350    0.657981    1.430137
C     -5.533543    0.610009    1.108514
C     -5.084447    0.154646   -0.119303
C     -3.744995    0.105426   -0.442156
C     -2.789764    0.514330    0.460266
C     -3.201010    0.971288    1.686503
C     -4.541783    1.010969    1.985235
C     -1.346028    0.474590    0.160091
S     -1.026699    1.453960   -1.306546
C      0.650265    1.325246   -1.889781
C      0.833127    2.135334   -2.980061
C      2.051883    2.212810   -3.600736
C      3.118576    1.480346   -3.144373
C      2.889445    0.664251   -2.026850
C      1.688938    0.565804   -1.388587
N      1.763823   -0.340510   -0.288207
C      3.044467   -0.698630    0.222226
C      3.560543    0.263150    1.277354
N      4.820242   -0.067958    1.801197
C      4.944202   -1.218317    2.595305
C      5.975836    0.473445    1.218824
C      0.601209   -0.902928    0.369102
O      0.917017   -1.454787    1.469673
C     -0.831209   -0.948039    0.003096
O     -0.903110   -1.363716   -1.351631
C     -1.554251   -2.515925   -1.723048
C     -1.616455   -2.930990   -3.142355
O     -2.102392   -3.223990   -0.847080
H     -6.659081    0.561592    3.498823
H     -6.854539    2.206807    2.788067
H     -8.292972    1.088093    2.945835
H     -5.844038   -0.165538   -0.823877
H     -3.427419   -0.265045   -1.435146
H     -2.473269    1.305245    2.430984
H     -4.868571    1.378989    2.971832
H     -0.804279    0.883082    1.062656
H     -0.016339    2.710174   -3.332549
H      2.185029    2.868807   -4.477297
H      4.061212    1.557121   -3.645343
H      3.730156    0.117268   -1.693277
H      2.801307   -1.619222    0.901066
H      3.775416   -1.162036   -0.415781
H      3.572548    1.315972    0.920731
H      2.834172    0.286576    2.145449
H      4.763233   -0.995820    3.668527
H      4.281894   -2.065954    2.342531
H      5.983305   -1.613627    2.533925
H      5.764031    1.445383    0.756737
H      6.750049    0.610946    2.029926
H      6.436788   -0.230461    0.500960
H     -1.342785   -1.641775    0.664226
H     -1.423273   -4.030511   -3.270175
H     -0.822581   -2.376886   -3.722955
H     -2.594610   -2.726239   -3.614903
