40

O     -1.430894    0.306104   -1.571215
C     -1.316246    0.395734   -0.152737
C     -0.501039    1.579238    0.084440
C      0.869987    1.738372   -0.035607
O      1.814804    0.758062   -0.399115
C      1.728937   -0.591911   -0.006034
C      2.970622   -1.151316    0.032358
C      4.219218   -0.418844   -0.303487
C      3.097666   -2.473082    0.401930
C      1.968315   -3.197042    0.723917
C      0.710273   -2.588835    0.672739
C      0.548022   -1.265325    0.304575
C     -0.842859   -0.911749    0.330226
C     -1.619328   -1.912369   -0.524934
N     -2.929012   -1.944363    0.053968
C     -3.529733   -0.715452    0.388577
C     -2.737909    0.535255    0.344736
C      1.515333    2.929550    0.196242
C      0.793266    4.045504    0.570224
C     -0.551121    3.924741    0.697865
C     -1.194855    2.707430    0.458655
H     -1.707273    1.237886   -1.844359
H      4.784009   -0.950452   -1.097229
H      4.045698    0.611960   -0.635994
H      4.854399   -0.392415    0.624486
H      4.059490   -2.978802    0.452261
H      2.072794   -4.243745    1.016742
H     -0.093195   -3.253171    0.963442
H     -1.200778   -1.007939    1.404943
H     -1.193091   -2.900752   -0.584322
H     -1.740464   -1.521829   -1.571861
H     -3.578472   -2.609197   -0.411168
H     -4.456973   -0.631271   -0.264072
H     -4.003784   -0.866270    1.411355
H     -2.655604    0.920254    1.392564
H     -3.240921    1.241541   -0.348554
H      2.580896    3.053452    0.102171
H      1.260314    5.005042    0.763216
H     -1.126786    4.815050    0.996524
H     -2.243707    2.720955    0.584909
