48

C      1.918673   -1.267945   -2.640852
C      2.926563   -0.999335   -1.576060
C      4.303290   -1.006353   -1.733462
N      4.829625   -0.730535   -0.551166
N      3.912740   -0.542311    0.371872
C      2.699827   -0.707292   -0.254082
C      1.452454   -0.553742    0.481815
O      1.484945   -0.372215    1.755800
N      0.137452   -0.573541   -0.018291
C     -1.047255   -0.413886    0.791359
C     -2.042091    0.593732    0.402991
S     -1.838004    1.315728   -1.271902
C     -3.479756    0.827811   -1.902291
C     -3.394054   -0.066476   -3.094392
C     -4.305399    2.069653   -2.154257
C     -4.017389    0.018022   -0.737461
N     -2.922039   -0.490593    0.028230
C     -2.092077   -1.417546    0.695465
O     -2.154167   -2.626136    1.083574
C     -4.917845    0.779799    0.132653
O     -6.061938    1.421516   -0.340613
O     -4.662926    0.867459    1.355315
C      4.093001   -0.229149    1.749457
C      4.316343    1.047143    2.219094
Cl     4.388379    2.367148    1.081935
C      4.487426    1.332109    3.554902
C      4.440029    0.327466    4.488937
C      4.219751   -0.956840    4.061214
C      4.054082   -1.205804    2.729731
Cl     3.775237   -2.853447    2.225706
H      1.254446   -2.067683   -2.302766
H      1.348236   -0.341402   -2.801519
H      2.469505   -1.563612   -3.576847
H      4.780752   -1.211817   -2.693944
H     -0.020804   -0.702572   -1.024089
H     -0.764606   -0.266771    1.874624
H     -2.398004    1.308719    1.149492
H     -4.334753   -0.691943   -3.103798
H     -3.413582    0.542361   -4.035493
H     -2.540546   -0.744516   -3.035195
H     -4.276333    2.661322   -1.211217
H     -3.733218    2.670928   -2.905947
H     -5.312568    1.846310   -2.512873
H     -4.644676   -0.840032   -1.134366
H     -6.343955    2.290782    0.086540
H      4.663479    2.339086    3.925295
H      4.578228    0.572642    5.547084
H      4.183526   -1.756240    4.819795
