81

N      5.749959   -2.228462   -1.819065
C      4.525324   -1.624999   -1.330990
C      4.416592   -1.761820    0.183026
O      3.309033   -1.225246    0.725255
C      3.315410    0.078719    1.144662
O      2.139515    0.607782    0.599195
C      1.164536    0.953129    1.467412
C      0.721421    2.365301    1.244272
N      1.869267    3.215363    1.085501
C     -0.051558    2.487545   -0.086181
C     -1.306829    1.691528    0.128121
N     -2.344424    1.943759   -0.774203
C     -2.822001    3.279271   -0.773289
C     -3.450448    3.795671    0.488183
O     -2.526681    3.791573    1.514533
C     -3.800240    3.527648   -1.929695
O     -4.195649    4.860572   -1.824816
C     -0.814044    0.227399    0.065755
O     -1.854304   -0.652531   -0.014379
C     -1.862923   -1.513335   -1.083365
O     -2.948426   -1.218942   -1.864578
C     -4.114154   -1.843761   -1.639578
C     -4.591202   -2.512527   -2.939502
O     -5.810456   -3.166892   -2.717924
C     -4.255242   -2.745358   -0.472749
O     -5.134164   -2.231715    0.514207
C     -3.012323   -3.222534    0.180855
N     -2.777405   -2.612127    1.479178
C     -1.849647   -2.976826   -0.726695
O     -0.651353   -3.457899   -0.282647
C     -0.067642    0.045820    1.363482
O      0.264621   -1.238747    1.665525
C      4.509401    0.879615    0.761833
N      4.753953    2.003241    1.614853
C      5.810645    0.123027    0.715252
O      6.688659    0.560722    1.740729
C      5.703683   -1.353606    0.835988
O      5.681528   -1.807584    2.149764
H      5.612380   -3.183123   -2.194110
H      6.278964   -1.600543   -2.431977
H      4.531844   -0.571084   -1.667754
H      3.654062   -2.122381   -1.819027
H      4.351616   -2.883812    0.343850
H      3.263080    0.047847    2.258480
H      1.444094    0.846581    2.546356
H      0.037358    2.728805    2.047123
H      2.449854    2.846739    0.312875
H      2.395453    3.399135    1.937989
H      0.540271    1.995115   -0.880891
H     -0.173236    3.548177   -0.263534
H     -1.638201    1.830133    1.167283
H     -3.146824    1.311882   -0.573078
H     -1.991378    4.027541   -0.994006
H     -3.873526    4.815254    0.324789
H     -4.248674    3.081022    0.789440
H     -2.952702    3.739655    2.414918
H     -3.250468    3.379657   -2.857591
H     -4.700248    2.905703   -1.805330
H     -5.087274    5.010326   -2.231149
H     -0.120692    0.092748   -0.777149
H     -0.959704   -1.315473   -1.695964
H     -4.886095   -1.022446   -1.489318
H     -3.824479   -3.202662   -3.338299
H     -4.781268   -1.755423   -3.725333
H     -5.631957   -4.140458   -2.700427
H     -4.803754   -3.667785   -0.834759
H     -5.104222   -2.853227    1.285314
H     -3.030784   -4.336636    0.372689
H     -2.872302   -3.281135    2.258593
H     -3.370568   -1.756520    1.614589
H     -2.079628   -3.523872   -1.685873
H     -0.749092   -3.730727    0.685917
H     -0.757334    0.417863    2.171428
H     -0.012313   -1.513102    2.569784
H      4.269394    1.334229   -0.247966
H      4.784057    1.839689    2.606315
H      5.174661    2.817934    1.201472
H      6.341052    0.424808   -0.222927
H      6.651880    1.543754    1.791719
H      6.528408   -1.810758    0.249168
H      5.355860   -2.756204    2.098447
