45

C     -5.195490    0.487523   -0.085003
C     -3.809357    1.063548   -0.055461
C     -3.786310    2.543418    0.202793
S     -2.890480    0.153783    1.259098
C     -2.649534   -1.280192    0.200881
C     -1.335221   -1.868645    0.002229
N     -0.143593   -1.073210    0.147781
C      1.100335   -1.564609    0.559227
O      1.125457   -2.828180    0.789704
C      2.342558   -0.866037    0.749756
N      3.440087   -1.495349    0.211923
C      4.678736   -1.010185    0.278625
C      5.773384   -1.655477   -0.269007
C      7.055332   -1.156575   -0.203137
C      7.257626    0.041056    0.437968
C      6.171689    0.702946    0.993541
C      4.894824    0.189095    0.918443
N      3.837753    0.811836    1.448452
C      2.559198    0.308387    1.380714
C      1.521056    1.003225    2.099279
O      0.273321    0.484842    2.274655
O      1.761310    2.126057    2.593895
C     -1.785666   -1.801448   -1.445419
O     -1.616879   -2.485407   -2.479503
N     -2.468025   -0.634812   -1.090117
C     -3.014732    0.649592   -1.231147
C     -3.864938    0.744691   -2.475889
O     -4.512118    1.903288   -2.837842
O     -3.981484   -0.267295   -3.199086
H     -5.916079    1.255753   -0.430899
H     -5.195888   -0.332491   -0.835703
H     -5.489004    0.021876    0.882365
H     -4.805123    2.931996   -0.012240
H     -3.570015    2.733655    1.254365
H     -3.093348    3.049815   -0.498316
H     -3.453331   -2.009358    0.273939
H     -1.253887   -2.936494    0.253164
H     -0.223517   -0.071756   -0.115503
H      5.630599   -2.591053   -0.772384
H      7.907097   -1.677054   -0.639606
H      8.268850    0.431659    0.488222
H      6.364402    1.638889    1.488741
H     -0.455770    0.887952    2.850522
H     -2.241916    1.463062   -1.393554
H     -5.211910    1.977682   -3.563154
