116

C      8.257840   -2.908640    1.250809
C      8.336832   -1.482077    1.708709
N      7.506561   -0.575973    0.933778
C      8.030501    0.084840   -0.225174
C      7.755275   -0.826049   -1.413390
C      6.169005   -0.406363    1.347147
O      5.657123   -1.083305    2.285943
C      5.243467    0.596764    0.698116
O      4.209207   -0.073786    0.125022
C      3.076539    0.509053   -0.572289
C      3.167208    1.898758   -0.526381
C      2.241577    2.752867   -1.093106
N      2.415262    4.212555   -0.940826
C      2.063089    4.871585    0.321961
O      1.961286    6.163674    0.301269
C      1.828959    4.192404    1.581974
C      0.717981    3.523297    1.853255
C     -0.492474    3.315071    1.018297
C     -1.418805    4.090858    0.565270
C     -2.654777    4.023647   -0.257486
C     -3.872948    4.587428    0.438141
C     -3.027044    2.787305   -0.986312
O     -3.203443    3.019275   -2.381928
C     -4.223731    2.027757   -0.442175
C     -5.377961    2.340891   -1.383668
C     -3.926845    0.528446   -0.613785
O     -2.534794    0.332651   -0.450678
C     -4.693971   -0.337631    0.354973
C     -6.126894   -0.426000   -0.171751
C     -4.184996   -1.760108    0.364206
O     -5.156227   -2.644438   -0.231494
C     -4.931976   -3.336436   -1.393877
C     -6.023540   -4.218262   -1.913996
O     -3.841992   -3.214688   -1.981170
C     -3.794153   -2.312033    1.680635
C     -4.639272   -1.801849    2.836122
C     -2.335764   -2.151299    2.075786
O     -2.266802   -2.458681    3.422495
C     -1.859373   -1.409059    4.225955
C     -1.393769   -2.855076    1.163726
C     -0.147542   -3.187349    1.168027
O      0.637032   -3.854449    0.237813
C      1.364999   -3.740113   -0.858405
C      2.009950   -5.097604   -1.190974
O      0.616367   -3.379270   -2.008424
C      0.688995   -1.968299   -1.996050
C     -0.234351   -1.150394   -2.577207
C     -1.412585   -1.609364   -3.328665
C      0.001171    0.185667   -2.451279
O     -0.928138    1.072821   -3.045132
C      1.119001    0.688666   -1.767838
C      1.171449    2.130609   -1.743567
O      0.065508    2.632128   -2.415855
C      2.046940   -0.149406   -1.193881
C      1.797320   -1.503769   -1.330044
C      2.458604   -2.706237   -0.911595
O      3.600176   -3.138839   -0.596614
C      2.855927    4.263982    2.732206
H      9.201799   -3.426188    1.557459
H      7.448810   -3.433008    1.805094
H      8.092329   -3.019560    0.160132
H      9.402668   -1.160720    1.602874
H      8.058907   -1.431022    2.772678
H      7.732732    1.115441   -0.378735
H      9.167256    0.110147   -0.144176
H      6.870725   -1.494957   -1.188726
H      8.651413   -1.435601   -1.688013
H      7.470135   -0.233966   -2.301485
H      4.921031    1.252102    1.579973
H      5.825428    1.236741    0.028997
H      4.130750    2.158820    0.054551
H      2.803786    4.946654   -1.660532
H      0.760177    3.005181    2.868427
H     -0.462024    2.171270    0.844901
H     -1.451176    5.252212    0.787628
H     -2.481373    4.790932   -1.101397
H     -3.957046    4.042592    1.426912
H     -4.771748    4.376913   -0.121205
H     -3.762356    5.653499    0.683685
H     -2.146228    2.116954   -0.949989
H     -3.102518    3.968912   -2.564457
H     -4.440605    2.239923    0.610487
H     -5.081037    3.137860   -2.131100
H     -5.615551    1.468483   -2.058797
H     -6.276415    2.711204   -0.894194
H     -4.125530    0.303039   -1.682778
H     -2.238713    0.666661    0.421892
H     -4.690831    0.168803    1.314809
H     -6.650468    0.536959   -0.088048
H     -6.676176   -1.254846    0.330123
H     -6.133773   -0.707321   -1.266152
H     -3.321723   -1.780159   -0.320836
H     -6.940905   -4.140112   -1.345267
H     -6.186673   -3.905724   -2.976642
H     -5.651668   -5.262487   -1.910263
H     -3.945260   -3.442182    1.728057
H     -5.725612   -2.078329    2.659292
H     -4.509439   -0.753277    3.068004
H     -4.361351   -2.444907    3.712711
H     -2.073537   -1.047205    2.008427
H     -1.829296   -1.700665    5.305534
H     -2.428986   -0.480510    4.134372
H     -0.784740   -1.148137    3.980510
H     -2.075359   -3.128809    0.275818
H      0.615522   -2.982249    2.009146
H      2.373592   -5.473235   -0.188997
H      1.224735   -5.730499   -1.599833
H      2.855335   -4.872144   -1.859209
H     -2.339711   -1.147920   -2.993772
H     -1.215119   -1.402286   -4.405689
H     -1.487919   -2.700679   -3.243556
H     -1.735272    0.724191   -3.532119
H     -0.499826    3.253740   -2.738954
H      3.428509    5.179315    2.672206
H      2.284963    4.209196    3.679048
H      3.488377    3.354809    2.701364
