127

C     -7.370260    4.307920   -0.112273
O     -6.262635    4.171594    0.702544
C     -5.393509    3.252851    0.199705
C     -4.123304    3.977821   -0.258473
C     -3.248799    4.671908    0.340457
O     -2.036379    5.312871   -0.221354
C     -1.002598    4.583533   -0.652211
C     -1.556500    3.442582   -1.561484
O      0.079726    5.129442   -1.369237
C      0.864229    3.896478   -1.559275
C      1.594404    3.530955   -2.632249
C      1.818086    4.332650   -3.860310
C      2.182902    2.270947   -2.534973
O      2.951026    1.862528   -3.622539
C      2.016102    1.466196   -1.408153
C      2.565971    0.076306   -1.525440
C      2.349152   -0.873301   -0.587114
N      2.220619   -2.324419   -1.056854
C      2.798352   -3.491253   -0.608705
O      3.979005   -3.781701   -1.082693
C      2.285727   -4.508996    0.345564
C      1.066693   -4.451330    0.884134
C      0.034358   -3.455323    0.678737
C     -0.963000   -3.107358   -0.051945
C     -1.770109   -3.524849   -1.218730
C     -1.155992   -3.045854   -2.505281
C     -3.223078   -3.048566   -1.088920
O     -4.048274   -3.786547   -1.926204
C     -3.457433   -1.595946   -1.254502
C     -3.997504   -1.367463   -2.662519
C     -4.461160   -1.135755   -0.221385
O     -3.809541   -0.991763    1.006406
C     -5.279377    0.054885   -0.586035
C     -6.524012   -0.513492   -1.293677
C     -5.836424    0.828395    0.596681
O     -7.207823    1.022983    0.567400
C     -8.191540    0.505910    1.341639
C     -9.602227    0.870210    1.108381
O     -7.828202   -0.287649    2.252613
C     -5.088682    2.041143    1.002900
C     -5.360814    2.335392    2.480102
C      3.205410   -5.669915    0.703244
C      1.654113   -0.472142    0.623877
C      1.855448   -0.939770    1.931684
N      2.845359   -1.908457    2.204590
N      4.193280   -1.678513    1.907558
C      5.076869   -2.750149    2.186588
C      6.500996   -2.172883    2.148237
N      6.629113   -1.040070    1.296070
C      5.753234    0.056279    1.550218
C      4.646187   -0.413676    2.476789
C      7.979918   -0.568766    1.345871
C      9.004415   -1.541216    0.840219
C     10.203076   -0.638892    0.643834
C      9.592883    0.570687   -0.023246
C      8.137905    0.606972    0.392092
C      1.097527    0.922808    0.752436
O      0.477310    1.087887    1.899622
C      1.281565    1.869695   -0.319307
C      0.709159    3.124497   -0.428443
C     -0.148660    3.891557    0.433140
O     -0.442558    4.188738    1.589880
O      3.344857   -0.003183   -2.728481
H     -7.106434    4.630330   -1.142370
H     -8.074380    3.486545   -0.047724
H     -7.929684    5.201488    0.316719
H     -5.906429    2.835619   -0.733140
H     -4.186070    3.766797   -1.388341
H     -3.154182    4.987757    1.420500
H     -2.139132    2.744647   -0.940616
H     -2.075551    3.950676   -2.366257
H     -0.693001    2.919225   -2.012361
H      2.907721    4.547381   -3.895037
H      1.587175    3.733607   -4.768461
H      1.286043    5.290692   -3.834995
H      3.076421    2.419352   -4.430372
H      1.509220   -2.599871   -1.906941
H      0.914306   -5.312578    1.602632
H      0.123478   -2.811075    1.709355
H     -1.486557   -2.078556    0.171919
H     -1.902180   -4.613863   -1.384461
H     -0.740336   -2.047564   -2.469110
H     -0.307313   -3.761752   -2.726180
H     -1.837692   -3.227498   -3.379143
H     -3.523074   -3.363091   -0.046576
H     -3.954064   -4.769055   -1.737494
H     -2.552572   -0.965139   -1.081549
H     -4.572541   -0.441656   -2.779469
H     -3.133851   -1.237936   -3.387344
H     -4.502890   -2.281593   -3.001751
H     -5.133475   -2.032927   -0.048266
H     -3.069695   -0.368141    0.938349
H     -4.696084    0.731353   -1.189142
H     -7.351126   -0.716874   -0.550237
H     -6.331635   -1.561566   -1.666719
H     -6.833089    0.073326   -2.156650
H     -5.707133    0.072491    1.451425
H     -9.778537    1.038497    0.019444
H    -10.242141    0.013586    1.446247
H     -9.889176    1.738613    1.729703
H     -3.964694    1.900074    0.886447
H     -4.443893    2.682961    2.993406
H     -6.256960    2.929212    2.625576
H     -5.570536    1.329971    2.952140
H      3.693829   -5.476455    1.677335
H      2.522950   -6.533690    0.879870
H      3.897777   -5.879564   -0.122802
H      1.284462   -0.603573    2.753035
H      2.585068   -2.807213    2.639803
H      5.012448   -3.528578    1.422367
H      4.965840   -3.192432    3.203857
H      6.878400   -2.010265    3.181289
H      7.142308   -2.981757    1.698311
H      5.241707    0.372628    0.598311
H      6.237775    0.941692    1.985450
H      3.801741    0.282733    2.443815
H      5.027661   -0.594880    3.501704
H      8.235356   -0.239676    2.379816
H      9.196716   -2.359140    1.550594
H      8.670409   -1.921528   -0.158524
H     10.518206   -0.295014    1.659813
H     11.001195   -1.102391    0.068160
H      9.690937    0.494889   -1.114984
H     10.041947    1.526202    0.301253
H      7.493575    0.498820   -0.496350
H      7.870019    1.557656    0.894678
H      3.026834   -0.157353   -3.640840
