108

C     -5.835097    4.020443    1.814958
O     -4.634026    3.487942    2.224870
C     -3.986466    2.896456    1.146205
C     -2.532152    3.333041    1.059322
C     -1.945340    4.368211    0.603522
O     -0.520760    4.672907    0.566574
C      0.432119    3.921876   -0.016178
C     -0.122969    2.795008   -0.889113
O      1.391412    4.618715   -0.789015
C      2.253136    3.526535   -1.183592
C      2.917454    3.240825   -2.339833
C      2.817979    4.192948   -3.486825
C      3.654831    2.089336   -2.417163
O      4.338665    1.790016   -3.597527
C      3.709461    1.228408   -1.302511
C      4.437632    0.039785   -1.486619
O      5.028259   -0.100285   -2.675052
C      4.555604   -0.971668   -0.475950
N      5.307083   -2.048183   -1.041769
C      5.036807   -3.447955   -1.135254
O      6.097612   -4.108620   -0.694158
C      3.994500   -4.328173   -1.555929
C      2.841608   -4.576171   -0.955149
C      2.222658   -4.093368    0.265699
C      1.440792   -3.206531    0.738232
C      0.601774   -2.021949    0.322699
C      0.000705   -1.303358    1.535135
C     -0.580571   -2.387985   -0.520657
O     -0.203891   -3.425736   -1.367165
C     -1.212513   -1.251051   -1.264145
C     -1.052172   -1.552418   -2.762915
C     -2.689156   -1.058386   -0.966453
O     -3.196815   -1.942177   -0.042974
C     -3.026626    0.360023   -0.642495
C     -3.074855    1.211219   -1.911501
C     -4.268710    0.566806    0.178433
O     -5.308913    1.164716   -0.619404
C     -6.496060    0.513117   -0.873446
C     -7.618861    1.038018   -1.668738
O     -6.643963   -0.651695   -0.377594
C     -4.051193    1.375889    1.433483
C     -5.126453    1.033340    2.418984
C      4.183723   -5.164579   -2.871729
C      3.894297   -0.672800    0.720217
N      3.793207   -1.319988    1.959907
C      4.287510   -2.507376    2.429226
C      4.056698   -2.923022    3.695150
C      3.308691   -2.179176    4.598546
C      3.040746   -2.609091    5.993214
C      2.812627   -0.990217    4.132804
C      3.080060   -0.592874    2.794414
N      2.737459    0.458542    2.143947
C      3.192534    0.497536    0.863597
C      3.053124    1.510426   -0.137960
C      2.326022    2.657405   -0.071878
C      1.490374    3.312201    0.904762
O      1.361825    3.523604    2.118775
H     -5.733881    4.790349    1.031375
H     -6.379141    4.519170    2.670065
H     -6.483798    3.220451    1.347062
H     -4.587305    3.003394    0.259118
H     -2.030450    2.449380    1.607068
H     -2.366728    5.303574    0.124316
H     -1.120931    3.138900   -1.193415
H      0.481988    2.769084   -1.812139
H     -0.071761    1.836268   -0.372035
H      1.815933    4.680881   -3.508154
H      3.628145    4.939990   -3.406382
H      2.932269    3.668577   -4.444193
H      4.371911    2.321222   -4.422296
H      5.390759   -0.113437   -3.488806
H      6.280357   -1.693423   -1.463950
H      2.223309   -5.377933   -1.509969
H      2.552009   -4.885380    1.103136
H      1.207191   -3.182073    1.880467
H      1.207256   -1.279077   -0.206368
H      0.529519   -1.622503    2.467450
H      0.080854   -0.215429    1.397048
H     -1.054089   -1.604067    1.629836
H     -1.401088   -2.822190    0.119591
H     -0.804839   -4.202324   -1.341033
H     -0.626221   -0.322780   -1.113527
H      0.023976   -1.703256   -2.984281
H     -1.530223   -0.816234   -3.407478
H     -1.519184   -2.560366   -2.965799
H     -3.259136   -1.282821   -1.926917
H     -3.239451   -1.670467    0.878954
H     -2.173869    0.760518   -0.042538
H     -3.869989    0.903449   -2.600607
H     -3.302140    2.246041   -1.587669
H     -2.070320    1.261200   -2.377881
H     -4.681339   -0.422884    0.454565
H     -8.419725    1.405790   -0.969284
H     -7.353137    1.864445   -2.338131
H     -8.028196    0.192092   -2.253678
H     -3.067263    1.067844    1.877054
H     -5.408859    1.931606    3.048233
H     -4.802319    0.260324    3.154891
H     -6.074371    0.765428    1.896766
H      5.263823   -5.403809   -2.850492
H      3.645666   -6.090082   -2.849943
H      3.884370   -4.563965   -3.724461
H      4.868809   -3.106030    1.774943
H      4.445776   -3.868522    4.079587
H      3.550376   -1.949820    6.727523
H      1.935339   -2.568382    6.187160
H      3.347653   -3.653528    6.174580
H      2.221040   -0.329657    4.748654
