31

Na     0.000000    0.000000    0.000000
C     -4.123695   -0.573635    1.154532
C     -3.721780   -1.041029   -0.201739
O     -4.766010   -0.751073   -1.083611
C     -2.448277   -0.408835   -0.697792
C     -1.301965   -0.722932    0.229402
S      0.027369   -1.681900   -0.490923
C      1.268942   -0.347128   -0.206920
C      0.574488    0.727891   -0.018794
N     -0.825669    0.616513   -0.073833
C     -2.180353    0.959997   -0.239786
O     -2.832793    2.021347   -0.054453
C      1.240452    2.025664    0.249056
O      0.427161    3.153122    0.441861
O      2.466707    2.208297    0.319402
C      2.673763   -0.753557   -0.251644
O      3.620352    0.217806   -0.045436
C      4.978142   -0.058346   -0.066471
N      5.897926    0.998549    0.155330
O      5.367538   -1.221259   -0.278146
H     -4.208915    0.545539    1.209663
H     -3.460362   -0.953694    1.945435
H     -5.173855   -0.936826    1.332101
H     -3.586981   -2.134833   -0.166240
H     -4.422235   -0.375304   -1.916759
H     -2.205780   -0.579074   -1.743750
H     -1.527612   -0.858658    1.281770
H      2.845603   -1.262792   -1.256352
H      2.895974   -1.590846    0.470180
H      6.910760    0.864742   -0.065241
H      5.591105    1.912253    0.534922
