54

C      0.928361   -0.084353   -0.230639
C     -0.501485   -0.254994   -0.430959
C     -1.527976    0.706840   -0.609514
C     -1.379841    2.088089   -1.249969
N     -1.967427    3.048138   -0.339223
C     -3.015962    3.901526   -0.756616
C     -3.637238    4.900731    0.170223
O     -3.420327    3.799350   -1.943574
C      0.000026    2.228505   -1.567929
C      1.385467    2.054936   -1.709794
C      1.795137    0.877876   -0.825468
C      3.115352    0.834261   -0.584459
C      3.621294   -0.139838    0.237493
C      2.772090   -1.086426    0.828418
C      1.411192   -1.052294    0.590398
O      0.560404   -1.958880    1.175556
C      0.025173   -1.652221    2.481666
O      3.244955   -2.076234    1.658255
C      3.663462   -3.346912    1.245330
O      4.965296   -0.189755    0.483892
C      5.871521    0.731836   -0.079130
C     -2.820426    0.599924   -0.290483
C     -3.500424   -0.563568    0.015420
O     -4.682879   -0.376763    0.405574
C     -3.044996   -1.857044   -0.056503
C     -1.739346   -2.356496   -0.224721
C     -0.606391   -1.628926   -0.451761
O     -3.992897   -2.848390    0.049612
C     -3.676451   -4.222039   -0.006048
H     -2.041026    2.151486   -2.163240
H     -1.634697    3.140921    0.656965
H     -4.451348    4.471382    0.765810
H     -2.854579    5.407296    0.791547
H     -4.074628    5.694966   -0.472505
H      0.158721    2.235771   -0.429111
H     -0.094028    1.209515   -2.102057
H      1.797118    1.939584   -2.736423
H      1.999005    2.953918   -1.367416
H      3.706191    1.605804   -1.078083
H      0.062285   -2.616108    3.031935
H      0.598323   -0.855241    2.971639
H     -1.013703   -1.338395    2.404916
H      3.769889   -3.440091    0.149480
H      4.588417   -3.693373    1.786370
H      2.867564   -4.072920    1.543563
H      5.979462    0.570434   -1.168145
H      6.846135    0.648571    0.450235
H      5.529993    1.778551    0.076770
H     -3.318515    1.551160   -0.292969
H     -1.663180   -3.440249   -0.161340
H      0.284614   -2.125088   -0.699961
H     -3.040581   -4.548841    0.856184
H     -4.647169   -4.775855    0.144170
H     -3.199929   -4.530079   -0.943380
