134

C      0.956455   -6.204783    0.318617
C      2.144923   -5.251448    0.228244
C      1.934645   -4.392109   -0.987238
O      0.797102   -3.632321   -0.976776
C     -0.321154   -3.459156   -0.257816
O     -1.399042   -4.047304   -0.649377
C     -0.546630   -2.661939    0.977601
C     -0.918604   -3.543614    2.154749
C     -1.484545   -1.493711    0.798705
O     -2.674998   -1.568211    1.410723
C     -3.848055   -1.626601    0.816462
C     -4.453229   -2.999754    1.204742
C     -5.901012   -3.099644    0.918940
C     -6.174661   -4.389936    0.146326
O     -6.655927   -3.027285    2.056070
C     -6.470086   -3.998233    2.987702
C     -6.242996   -1.953864   -0.048363
O     -7.631955   -2.001414   -0.212420
C     -5.933603   -0.649451    0.648342
C     -5.793014    0.407334   -0.428881
O     -4.730673   -0.684513    1.332200
C     -0.880697   -0.160628    1.170009
C     -1.636535    0.528978    2.308340
C     -0.766486    0.857958    0.061704
O     -0.736029    2.157982    0.520340
C     -1.763443    2.960999    0.019053
O     -1.232406    3.923289   -0.861568
C     -2.258156    4.478023   -1.625851
C     -1.668098    5.335535   -2.721555
C     -3.086648    5.331083   -0.676977
C     -2.586865    5.154364    0.741083
C     -2.494238    3.672266    1.099472
O     -3.797825    3.193726    1.247333
N     -1.337036    5.839033    0.871888
C     -0.794201    5.778004    2.209717
C     -1.563078    7.238292    0.562423
C      0.475050    0.573740   -0.759258
C      0.010490   -0.109197   -1.958239
O      1.309390    0.036230    0.169679
C      1.304096    1.729350   -1.222699
C      2.485184    1.218503   -2.001403
C      3.404668    2.487015   -2.067738
C      3.299239    0.136317   -1.473189
N      3.868587    0.351386   -0.328341
O      4.666746   -0.513304    0.345295
C      5.898198   -0.043965    0.859761
O      6.670648    0.412855   -0.179246
C      7.903805    0.901202    0.174234
C      7.842582    2.077972    1.124279
O      9.177489    2.455117    1.383438
C      9.206988    3.546830    2.261475
C      3.616104   -1.182616   -2.083660
C      3.682514   -0.898952   -3.599199
C      2.731063   -2.303214   -1.829180
O      1.997838   -2.549277   -3.029663
C      3.215114   -3.633217   -1.396534
C      4.194880   -3.636519   -0.279839
O      3.834882   -4.232689   -2.497228
H      0.293363   -5.961559    1.172084
H      1.293929   -7.278392    0.374830
H      0.338876   -6.164974   -0.599396
H      2.226011   -4.687024    1.155539
H      3.022773   -5.903896    0.039937
H      1.819004   -5.146198   -1.838142
H      0.437476   -2.249277    1.247480
H     -1.401065   -2.967997    2.966922
H     -0.028360   -4.017603    2.626471
H     -1.537524   -4.405820    1.815774
H     -1.707223   -1.466749   -0.283829
H     -3.938153   -1.597113   -0.259885
H     -3.892646   -3.717933    0.531297
H     -4.167371   -3.209362    2.238264
H     -6.007386   -4.191741   -0.932036
H     -5.534843   -5.213875    0.530541
H     -7.248057   -4.616878    0.276713
H     -5.461422   -4.084004    3.423361
H     -6.834946   -5.003521    2.618015
H     -7.174760   -3.779746    3.847638
H     -5.764818   -2.070506   -1.015306
H     -7.956751   -2.863593   -0.529178
H     -6.737096   -0.382232    1.333462
H     -5.043554    1.176939   -0.148370
H     -6.803536    0.841621   -0.571296
H     -5.508705   -0.067878   -1.389466
H      0.114747   -0.406171    1.616864
H     -2.590181    0.871766    1.872466
H     -1.853992   -0.185049    3.128297
H     -1.059477    1.398310    2.618284
H     -1.672462    0.776993   -0.573451
H     -2.390481    2.308877   -0.622517
H     -2.847648    3.661050   -2.051611
H     -0.920086    6.044017   -2.322275
H     -2.536415    5.889512   -3.170848
H     -1.256021    4.682409   -3.526087
H     -4.160030    5.119087   -0.800631
H     -2.941489    6.384265   -0.970653
H     -3.309051    5.648456    1.422635
H     -1.907333    3.566338    2.046455
H     -4.372939    3.711495    0.639455
H     -1.616444    5.929188    2.935092
H     -0.124904    6.676774    2.343401
H     -0.183637    4.891486    2.382654
H     -2.637136    7.486633    0.775224
H     -1.270924    7.522581   -0.453444
H     -0.965225    7.896168    1.244366
H     -0.981134    0.347722   -2.311493
H      0.629672    0.055643   -2.892753
H     -0.082069   -1.205507   -1.923364
H      1.450273    0.792220    0.838381
H      1.594078    2.433648   -0.419040
H      0.685087    2.300441   -1.962395
H      2.267533    1.087437   -3.105484
H      4.356731    2.196318   -2.521267
H      2.862965    3.298362   -2.555473
H      3.606369    2.715406   -0.997628
H      5.674112    0.721809    1.627228
H      6.364547   -0.927671    1.375562
H      8.549766    0.143995    0.664182
H      8.412897    1.244983   -0.747239
H      7.369621    2.969973    0.638778
H      7.332022    1.816805    2.073284
H      8.723677    3.269789    3.201784
H     10.282630    3.725621    2.474917
H      8.815236    4.444071    1.773198
H      4.668323   -1.486247   -1.845734
H      4.286075   -0.002675   -3.721595
H      2.670791   -0.856871   -4.026789
H      4.216611   -1.743681   -4.087398
H      1.939824   -2.026530   -1.110090
H      2.549103   -3.094465   -3.618423
H      3.799404   -3.234402    0.651770
H      4.599910   -4.683281   -0.174965
H      5.087337   -3.036973   -0.621760
H      3.239771   -4.945330   -2.818002
