58

C     -6.334038   -0.833110   -3.258835
O     -5.509469    0.258569   -3.526274
C     -5.392748    1.048344   -2.378031
O     -4.845975    0.373120   -1.290191
C     -3.610735   -0.186713   -1.285987
O     -2.899955   -0.101749   -2.315918
C     -3.004983   -0.917898   -0.124303
N     -1.673037   -1.369328   -0.401465
C     -0.969980   -1.739175    0.798618
S     -1.484668   -0.451455    1.917029
C     -3.085005   -0.188451    1.135699
C     -4.122817   -0.838108    2.057447
C     -3.433802    1.270906    1.015129
C      0.298357   -1.682625    0.072468
N      1.254371   -0.657104    0.241911
C      2.632330   -0.977223    0.585877
O      3.165002   -2.100897    0.713562
C      3.348494    0.317853    0.772479
N      2.671366    1.118511   -0.211788
C      1.249770    0.763533    0.129187
C      1.004194    1.506287    1.426476
C      0.454929    1.356985   -0.983670
C      4.793630    0.205446    0.597001
C      5.608085    0.360656    1.721738
C      6.991422    0.256553    1.584423
C      7.555419    0.004028    0.357081
O      8.950384   -0.099936    0.226345
C      6.754247   -0.151876   -0.768611
C      5.377061   -0.046774   -0.621077
C     -0.547697   -1.696926   -1.129851
O     -0.332170   -1.923548   -2.366985
H     -6.445188   -1.470231   -4.157623
H     -5.892081   -1.498755   -2.461132
H     -7.321889   -0.543401   -2.870104
H     -6.444117    1.351622   -2.110849
H     -4.848737    1.987440   -2.583686
H     -3.627042   -1.862084   -0.049048
H     -1.256517   -2.753640    1.192383
H     -3.768645   -0.613429    3.092814
H     -5.104148   -0.385908    1.937087
H     -4.113982   -1.938908    1.913418
H     -3.167424    1.757299    1.976494
H     -4.528995    1.381065    0.899329
H     -2.859245    1.780758    0.229346
H      0.774990   -2.747690    0.187695
H      3.074886    0.739794    1.768563
H      2.768461    0.754786   -1.185906
H      0.029355    1.998432    1.391945
H      1.753420    2.332361    1.545084
H      1.122711    0.867055    2.319588
H     -0.453720    0.834908   -1.257752
H      1.092284    1.619028   -1.863687
H      0.098699    2.377633   -0.625715
H      5.163854    0.559849    2.687641
H      7.656327    0.370078    2.428153
H      9.499933    0.732229    0.024922
H      7.215503   -0.348002   -1.708890
H      4.719326   -0.160185   -1.458564
