45

C      3.356717    1.825602    1.590321
C      2.691120    0.567245    1.061826
C      2.381376   -0.333554    2.197908
S      1.178969    1.111674    0.171536
C      1.730500    0.574637   -1.494424
C      0.804753   -0.377385   -2.187193
N     -0.431498   -0.663919   -1.495682
C     -1.700200   -0.618795   -2.095048
O     -1.706140   -0.300658   -3.329159
C     -2.998250   -0.896465   -1.455591
C     -3.351651   -0.014473   -0.344191
C     -4.247250    1.037608   -0.483978
C     -4.576571    1.854715    0.585833
C     -4.020963    1.637363    1.807047
C     -3.131556    0.603089    1.974018
C     -2.811706   -0.205550    0.896455
S     -3.158894   -2.629355   -1.057647
O     -2.094778   -3.132663    0.108263
O     -2.860545   -3.395621   -2.328358
O     -4.593097   -2.859920   -0.686384
C      1.899192   -1.329534   -1.992263
O      2.152463   -2.461140   -2.474318
N      2.595022   -0.524651   -1.052484
C      3.490148   -0.066965   -0.042596
C      4.496197    0.836231   -0.640744
O      5.499009    1.422819    0.144063
O      4.528312    1.139061   -1.866564
H      2.663118    2.344105    2.283570
H      3.549877    2.550809    0.763317
H      4.293817    1.577618    2.139329
H      1.539804    0.123930    2.781197
H      3.247718   -0.339494    2.892802
H      2.168740   -1.381141    1.905011
H      2.213044    1.347019   -2.089710
H      0.655191   -0.118262   -3.236460
H     -0.362850   -0.919860   -0.492596
H     -3.788346   -0.732506   -2.259825
H     -4.709536    1.241607   -1.439742
H     -5.275765    2.665972    0.450401
H     -4.276190    2.266613    2.625145
H     -2.708012    0.453036    2.945715
H     -2.118673   -1.008515    1.065175
H     -2.618845   -3.650637    0.786919
H      4.021447   -0.931030    0.409521
H      6.384783    1.711338   -0.237956
