126

C      7.184710    1.994689    1.761198
O      6.500265    0.819970    1.470840
C      7.346967   -0.057629    0.798887
C      6.895547   -0.311067   -0.614525
C      5.886945   -1.402069   -0.775147
C      6.140484   -2.561649    0.172341
C      7.586381   -2.488747    0.692390
C      7.597294   -1.287722    1.611895
O      8.871523   -1.248692    2.193463
C      4.529086   -0.810511   -0.567711
C      3.605964   -0.762717   -1.502152
C      3.915472   -1.321868   -2.841369
C      2.270437   -0.178845   -1.300594
O      1.189982   -0.850429   -1.801052
C      0.896527   -2.088451   -2.222987
O      0.857438   -2.498285   -3.437178
C      0.571482   -3.140672   -1.221124
C      1.694791   -4.087069   -0.961957
C      1.881352   -5.003849   -2.129652
C      0.644314   -5.833464   -2.334869
C     -0.470428   -5.350861   -1.392821
N     -0.625020   -3.901340   -1.534800
C     -1.872325   -3.386789   -1.957278
O     -2.304825   -3.942244   -3.061351
C     -2.698538   -2.367345   -1.354022
O     -2.897913   -1.329458   -2.098898
C     -3.348485   -2.344990   -0.010639
O     -3.615688   -3.658745    0.473639
O     -4.597412   -1.838208   -0.227817
C     -5.158237   -0.905273    0.558212
C     -5.291820    0.460488   -0.069966
C     -4.567963    1.574641    0.538236
C     -5.248469    2.935939    0.286392
C     -6.671641    2.896508    0.858444
C     -4.514802    4.033894    1.031539
C     -3.317651    4.545829    0.181105
C     -2.088686    4.169185    0.245919
C     -0.753446    4.452902   -0.398933
C     -0.296996    5.830805    0.109449
C      1.025773    6.132280   -0.519511
C      1.188335    7.196577   -1.288349
C      0.325584    3.530735    0.082628
O      0.797411    3.751842    1.182576
C      0.861562    2.381468   -0.661153
C      0.712879    1.084598    0.108081
O      0.451501    1.428869    1.443198
C      2.052866    0.337722    0.126835
C      2.000194   -0.762519    1.144030
C     -4.073285    5.541496   -0.699384
O     -6.640280    0.767323   -0.365077
C     -6.930589    0.745924   -1.706083
C     -4.719011   -0.924222    1.989972
C     -3.239992   -1.016634    2.137857
C     -2.515091   -1.731873    1.058864
C     -1.696396   -2.833534    1.767815
O     -5.332721   -1.983132    2.703202
C     -6.141222   -1.565797    3.719617
H      8.074234    1.802937    2.403440
H      6.529308    2.757732    2.226138
H      7.574388    2.429655    0.812163
H      8.335421    0.468829    0.696743
H      7.789221   -0.537508   -1.259411
H      6.476374    0.627393   -1.015023
H      6.008667   -1.816486   -1.796421
H      5.498610   -2.471272    1.063742
H      6.035744   -3.543732   -0.307357
H      7.773923   -3.439910    1.217049
H      8.293464   -2.300085   -0.148380
H      6.823025   -1.429988    2.398204
H      9.434557   -2.019468    1.938332
H      4.290077   -0.389657    0.402961
H      4.883641   -0.969072   -3.252844
H      3.150168   -1.018822   -3.611905
H      3.973984   -2.425631   -2.766259
H      2.312107    0.803869   -1.895013
H      0.336985   -2.665952   -0.220641
H      1.482044   -4.629095   -0.017977
H      2.661373   -3.520964   -0.801602
H      2.757244   -5.655008   -1.900495
H      2.094674   -4.405531   -3.023056
H      0.831956   -6.888930   -2.067490
H      0.289811   -5.805572   -3.370875
H     -0.255813   -5.637947   -0.345110
H     -1.353271   -5.928568   -1.696118
H     -3.384243   -4.300421   -0.253419
H     -6.241377   -1.268474    0.645652
H     -4.851642    0.309460   -1.111380
H     -4.360621    1.580053    1.600949
H     -3.552031    1.712236    0.054123
H     -5.229917    3.063387   -0.793922
H     -7.440352    2.944322    0.087126
H     -6.787843    2.050288    1.579061
H     -6.854798    3.813440    1.494911
H     -5.245029    4.923488    1.130125
H     -4.388358    3.757338    2.040299
H     -1.692723    3.327288    0.968535
H     -0.681509    4.457138   -1.466722
H     -0.217487    5.822541    1.214120
H     -1.001202    6.606626   -0.192267
H      1.876132    5.484450   -0.357991
H      0.339034    7.862549   -1.463003
H      2.136589    7.420198   -1.744122
H      1.948671    2.567071   -0.818291
H      0.299145    2.255615   -1.599592
H     -0.107675    0.466639   -0.249762
H      1.333713    1.597347    1.907349
H      2.822927    1.109182    0.316537
H      0.930814   -0.914696    1.455438
H      2.563717   -0.436970    2.053983
H      2.355656   -1.736859    0.755704
H     -4.603018    6.304083   -0.033321
H     -3.624169    6.094427   -1.465949
H     -4.951342    5.025507   -1.207440
H     -7.999197    1.001058   -1.822120
H     -6.678412   -0.231355   -2.170793
H     -6.362469    1.540789   -2.228687
H     -5.089537   -0.019755    2.492782
H     -2.728076   -0.018570    2.277194
H     -3.058098   -1.517658    3.135589
H     -1.703449   -1.099692    0.588577
H     -1.458537   -3.669026    1.114813
H     -0.803552   -2.380933    2.254108
H     -2.304885   -3.256066    2.621588
H     -5.606785   -0.963277    4.502988
H     -7.056116   -1.035030    3.385312
H     -6.498001   -2.475940    4.246898
