43

C      1.631899   -1.965862   -0.536555
C      2.368713   -0.765611   -0.040851
C      3.395121   -1.135098    1.013592
C      1.429522    0.276374    0.514140
N      0.100701    0.269750   -0.058812
C     -1.068580    0.290583    0.737210
O     -0.810692    0.316725    2.002706
C     -2.434811    0.284859    0.270025
N     -3.360149    0.308931    1.173173
O     -3.016923    0.338233    2.498130
C     -3.354622    1.545433    3.191670
C     -2.958638    1.502447    4.597213
O     -3.206757    2.580197    5.415590
O     -2.393468    0.483994    5.055883
C     -2.835036    0.251612   -1.159400
C     -4.165666    0.243309   -1.529296
S     -4.054707    0.203555   -3.234119
C     -2.355507    0.199831   -3.378717
N     -1.531683    0.172331   -4.568183
N     -1.966535    0.229095   -2.118726
C      2.364937    1.231308   -0.084820
O      2.642823    2.439616    0.149397
N      2.780438    0.212939   -0.993846
O      3.324348    0.359983   -2.222004
S      3.669606   -1.052482   -2.990665
O      4.695351   -2.035078   -2.074507
O      4.467595   -0.698820   -4.241366
O      2.473072   -1.807210   -3.470304
H      0.841823   -1.696139   -1.262396
H      1.102416   -2.413299    0.355942
H      2.325061   -2.742521   -0.877840
H      2.868089   -1.674852    1.844085
H      4.202834   -1.766723    0.615156
H      3.840865   -0.222945    1.474014
H      1.404828    0.291432    1.622400
H      0.025488    0.249179   -1.080150
H     -2.790364    2.346341    2.680087
H     -4.432122    1.767975    3.029196
H     -3.176686    2.525561    6.418408
H     -5.057830    0.258524   -0.873300
H     -1.648371   -0.612531   -5.215714
H     -0.865597    0.942356   -4.710225
H      5.529214   -1.533304   -1.908674
