34

O     -6.032093   -0.482685    3.288917
C     -4.769025   -0.006775    2.846984
C     -4.539445   -0.275266    1.510926
C     -3.355615    0.153350    0.906444
C     -2.436597    0.846517    1.765811
C     -2.681030    1.080665    3.009461
C     -3.888064    0.655389    3.642439
C     -1.144479    1.111902    1.030602
C     -0.535510   -0.040154    0.640727
N     -1.217502   -1.207214    1.045145
C     -1.750310   -2.126936    1.379154
C      0.641836    0.088413   -0.123461
C      1.370806   -0.767715   -0.798684
C      2.545891   -0.606882   -1.542334
C      2.928358    0.654362   -2.059741
C      3.962469    0.731996   -2.926423
C      4.678863   -0.450449   -3.324508
O      5.704447   -0.167865   -4.233981
C      4.359220   -1.688909   -2.850150
C      3.293841   -1.668942   -1.982013
N      1.409086    1.287901    0.371196
C      1.991588    2.235574    0.762347
H     -6.828110    0.182439    3.204533
H     -5.244208   -0.878414    0.880664
H     -3.079143    0.009516   -0.098045
H     -1.957378    1.596848    3.660422
H     -4.011648    0.839792    4.654126
H     -0.849847    2.106041    0.906441
H      0.980870   -1.842290   -0.750913
H      2.413428    1.536406   -1.772214
H      4.262828    1.686768   -3.405561
H      5.915068    0.713406   -4.569659
H      4.840867   -2.602349   -3.140668
H      3.020538   -2.704439   -1.585532
