84

Cl     0.000000    0.000000    0.000000
C      7.787779   -3.485302    1.652313
O      6.528769   -3.017214    1.176572
C      5.953959   -3.598651    0.070897
C      6.592798   -4.639680   -0.585339
C      6.000069   -5.208697   -1.691326
C      4.767535   -4.714669   -2.117194
C      4.140199   -3.679751   -1.458603
C      2.838012   -3.157171   -1.907703
O      2.353869   -3.706244   -2.905253
C      2.160340   -2.054029   -1.212718
C      0.941876   -1.577688   -1.646730
O      0.281989   -2.064947   -2.714913
C      0.344451   -0.510727   -0.927816
C     -0.962982    0.001140   -1.406937
C     -1.779965    0.712700   -0.388152
O     -1.897765    2.085104   -0.737258
C     -1.199367    0.689241    1.002533
C      0.268419    1.144474    0.879544
O      0.216715    2.314652    0.120076
C      0.661938    3.422224    0.877415
C      1.891460    3.934973    0.134652
C      1.364833    4.801580   -0.989772
N      2.415707    5.044167   -1.946927
C      0.821967    6.055194   -0.377388
O      1.902908    6.865785    0.008107
C      0.095902    5.661673    0.897093
C      0.873702    6.003592    2.127308
O     -0.349354    4.348918    0.863786
C      0.941150    0.048141    0.170836
C      2.144150   -0.440656    0.577977
O      2.789913    0.083976    1.675450
C      2.770028   -1.493003   -0.102239
C      4.053220   -2.014599    0.332864
O      4.595778   -1.490583    1.348746
C      4.730777   -3.110338   -0.353921
C     -3.173856    0.162857   -0.303141
C     -4.097436    0.171111   -1.468067
N     -3.584783   -0.332272    0.809434
N     -4.869180   -0.871246    0.992992
C     -5.218845   -2.170742    0.583149
O     -4.306245   -2.850131    0.028776
C     -6.514255   -2.770692    0.746043
C     -6.759358   -4.051813    0.304817
C     -7.990389   -4.665171    0.442385
C     -9.029298   -3.970434    1.048732
C     -8.800542   -2.700079    1.490742
C     -7.557435   -2.106332    1.341420
H      0.000000    0.000000    0.000000
H      8.136014   -2.887652    2.506062
H      8.499976   -3.497780    0.803844
H      7.677323   -4.550363    1.998844
H      7.559178   -5.020079   -0.243420
H      6.498358   -6.022060   -2.204887
H      4.285374   -5.148040   -2.983513
H      0.489008   -2.765200   -3.333601
H     -0.713646    0.718866   -2.242817
H     -1.520914   -0.819745   -1.911586
H     -2.387937    2.539728   -0.029655
H     -1.192075   -0.339609    1.359906
H     -1.781695    1.394064    1.615145
H      0.641564    1.378477    1.873878
H      0.931193    3.042858    1.880909
H      2.497030    4.550721    0.805895
H      2.450551    3.087381   -0.312054
H      0.558043    4.263342   -1.516360
H      2.082854    5.134663   -2.922507
H      3.062634    5.806599   -1.655180
H      0.177859    6.634545   -1.068560
H      1.787795    7.772934   -0.351578
H     -0.835680    6.299343    0.917371
H      1.812066    6.562640    1.923569
H      0.292772    6.654120    2.839408
H      1.113366    5.085264    2.698928
H      2.510990    0.818135    2.270904
H     -5.136667    0.438081   -1.189285
H     -3.751448    0.877439   -2.243997
H     -4.169985   -0.847501   -1.941807
H     -5.581658   -0.275798    1.451587
H     -5.958532   -4.599308   -0.167449
H     -8.191429   -5.670386    0.098896
H     -9.997645   -4.484211    1.144147
H     -9.593069   -2.150653    1.961204
H     -7.390721   -1.079458    1.704498
