8

Cl    -1.540932    0.782619   -1.251485
C     -0.733819   -0.207643   -0.017513
C      0.710791    0.198103    0.172257
F      0.868746    1.488414    0.565821
F      1.229765   -0.634604    1.153640
Cl     1.640888   -0.073612   -1.309751
F     -1.439589   -0.045244    1.155705
F     -0.735851   -1.508033   -0.468675
