50

H      0.000000    0.000000    0.000000
C     -1.038475    0.890102    1.138471
N     -2.077782    1.775444    1.097833
C     -3.153410    1.141349    0.628464
C     -2.746314   -0.171028    0.378165
N     -1.431546   -0.313604    0.699171
C     -0.641575   -1.529500    0.607119
C     -0.033962   -1.724111   -0.734276
N      0.822526   -0.838516   -1.322943
C      2.131812   -0.603379   -0.927362
C      2.415419    0.016072    0.389453
C      3.917745    0.150650    0.546998
C      4.634957   -0.888812    1.090808
C      6.022317   -0.779289    1.254899
C      6.688231    0.372463    0.873179
C      5.956514    1.409904    0.328036
C      4.573559    1.286085    0.170862
C      2.841233    0.274378   -1.984288
C     -3.668799   -1.049958   -0.119681
O     -3.370906   -2.244591   -0.367332
N     -4.919544   -0.606477   -0.343183
C     -5.283417    0.669076   -0.091241
O     -6.464692    1.030232   -0.317553
N     -4.407422    1.565173    0.399155
C     -4.868183    2.909142    0.646501
C     -5.892378   -1.539516   -0.872820
Cl     0.000000    0.000000    0.000000
H     -0.032662    1.125907    1.486853
H      0.103164   -1.647476    1.406461
H     -1.359090   -2.395939    0.797588
H      0.490188   -2.762271   -0.678368
H     -0.873182   -1.981422   -1.471234
H      0.344207    0.026112   -1.636229
H      2.705846   -1.587848   -0.994084
H      2.047466   -0.574406    1.213589
H      2.009788    1.078745    0.359318
H      4.166090   -1.826087    1.413525
H      6.606159   -1.584286    1.681241
H      7.757742    0.456833    0.999658
H      6.490931    2.305080    0.034042
H      4.026092    2.103484   -0.251246
H      2.459144    1.294978   -1.854490
H      2.574271   -0.057858   -3.006410
H      3.921361    0.145803   -1.879547
H     -4.031316    3.652023    0.648676
H     -5.332065    3.021894    1.662032
H     -5.624607    3.242796   -0.089295
H     -5.395692   -2.484019   -1.199707
H     -6.650294   -1.705770   -0.082070
H     -6.409448   -1.047564   -1.728737
