33

C     -4.222592    1.167557   -0.880102
C     -3.446964    0.484351    0.064264
C     -2.001593    0.445755   -0.092255
O     -1.121596   -0.182163    0.750688
C      0.235879   -0.170947    0.530005
C      1.025113    0.819069    1.050897
C      2.374991    0.816318    0.822121
C      2.995988   -0.180105    0.059908
C      2.209377   -1.167368   -0.459303
C      0.822045   -1.154313   -0.217595
N      4.387664   -0.108300   -0.114657
C      5.183835   -0.891074   -0.955468
C      6.687966   -0.692777   -1.030010
O      4.662536   -1.774463   -1.665023
O     -1.489809    1.043877   -1.097345
C     -4.123266   -0.119867    1.103452
C     -5.504500   -0.036504    1.180896
C     -6.244112    0.634541    0.250014
C     -5.583613    1.246359   -0.798604
O     -3.477057   -0.809733    2.077538
H     -3.693850    1.651093   -1.709876
H      0.554329    1.605050    1.648788
H      2.992247    1.598006    1.233649
H      2.602838   -1.967468   -1.046694
H      0.246883   -1.958947   -0.652104
H      4.928355    0.623930    0.455107
H      6.960762   -0.920949   -2.074173
H      6.871009    0.392258   -0.853518
H      7.201427   -1.333075   -0.293678
H     -6.002212   -0.510561    1.991271
H     -7.336214    0.673725    0.352735
H     -6.156144    1.785549   -1.549829
H     -2.539723   -1.008823    2.246212
