19

C     -4.173956    0.726627   -1.281312
C     -2.818330    0.824460   -0.644130
N     -1.891569   -0.238127   -0.763519
C     -0.616989   -0.104554   -0.143973
N     -0.163051    0.926325    0.559775
N      0.999735    0.895580    1.050083
C      1.774430   -0.167029    0.864776
S      0.726528   -1.158447   -0.077760
S      3.412336   -0.465779    1.429938
N      4.527049    0.104824    0.254488
O      3.641934    0.127574    2.776733
O      3.564458   -1.956543    1.556241
O     -2.568280    1.882163   -0.015739
H     -4.438192    1.737465   -1.646569
H     -4.891500    0.448305   -0.462103
H     -4.191251   -0.033480   -2.090391
H     -2.091085   -1.111420   -1.279347
H      5.109793    0.900292    0.589404
H      4.087940    0.270965   -0.676594
