47

C     -3.402249   -0.929897    1.103578
N     -4.625908   -1.328806    0.984907
C     -5.339197   -0.960208   -0.113153
N     -4.837450   -0.195545   -1.079031
C     -3.530844    0.248851   -0.983056
C     -2.805775   -0.099651    0.083090
C     -1.477207    0.356962    0.474763
N     -0.401626   -0.140069   -0.451153
C      0.575148    0.917532   -0.656421
C      1.873979    0.790008   -0.484321
C      2.380131   -0.584063   -0.057513
C      2.172068   -0.864668    1.386973
O      2.546940   -2.179713    1.666929
C      3.782713   -2.746286    1.481914
C      4.058853   -4.181566    1.802136
O      4.706104   -2.047421    1.029513
S      3.045299    2.038601   -0.497856
C      2.951457    3.632715   -1.021485
C      3.872336    4.695532   -0.362921
O      2.244509    4.091358   -1.890727
C      0.054768    2.227771   -1.101757
C     -0.155875   -1.494749   -0.503257
O      0.504876   -2.114202   -1.395824
N     -3.031189    0.972281   -2.078818
C     -6.712825   -1.535495   -0.215095
H     -2.797851   -1.178338    2.007528
H     -1.464873    1.427701    0.590373
H     -1.107288   -0.056319    1.452820
H      3.567501   -0.410941   -0.051777
H      2.312562   -1.347169   -0.756356
H      2.809861   -0.212092    2.045252
H      1.129915   -0.755843    1.773644
H      4.069329   -4.291338    2.934037
H      3.354184   -4.901991    1.412669
H      5.089948   -4.424681    1.418597
H      3.597402    5.679992   -0.754802
H      4.909893    4.492296   -0.676167
H      3.712181    4.621593    0.719398
H     -1.038179    2.316932   -1.108408
H      0.385292    3.065440   -0.441467
H      0.358107    2.329658   -2.165277
H     -0.545749   -2.156732    0.284197
H     -2.415758    0.457256   -2.774633
H     -3.223912    1.962565   -2.276344
H     -6.739626   -2.464422    0.431988
H     -7.502593   -0.846071    0.086585
H     -6.909382   -1.876767   -1.273274
