68

C     -0.426045    1.057666   -0.126173
O     -1.309720    1.721073   -0.975137
C     -2.561641    1.292574   -0.417420
C     -3.872689    1.726206   -0.252132
O     -4.176679    2.963613   -0.779960
C     -4.036050    4.118008   -0.026945
O     -3.623298    4.014882    1.154379
C     -4.348128    5.465248   -0.546113
C     -4.812980    0.937966    0.414371
C     -4.435280   -0.319914    0.932984
C     -3.149115   -0.781270    0.786162
C     -2.344894    0.054024    0.129224
C     -0.970699   -0.317152   -0.300771
C     -0.250201   -1.170246    0.661282
C      1.003703   -1.461289   -0.154726
C      1.642980   -0.149291   -0.586233
C      0.965836    1.027525    0.117648
O      1.698718    2.184568   -0.067334
C      1.307596    3.232865    0.716756
C      1.095221    0.537155    1.556190
C      0.304297   -0.479950    1.853050
C      3.117457   -0.196914   -0.613608
O      3.394078   -1.228766   -1.565422
C      3.881535   -0.555631    0.581647
C      5.404430   -0.560364    0.360911
C      5.822442   -1.553281   -0.693888
C      3.694786    1.019685   -1.319643
C     -1.151014   -2.311844    0.865992
N     -1.167298   -3.003051   -0.442068
C     -1.913039   -2.212532   -1.404578
C     -1.219745   -0.885454   -1.610395
C     -1.640482   -4.344174   -0.332076
C     -2.541441   -2.006421    1.302629
H     -0.841917    1.439770    0.876567
H     -5.144099    5.431993   -1.329608
H     -3.473815    5.975738   -0.984518
H     -4.746242    6.141111    0.250210
H     -5.827645    1.257632    0.549226
H     -5.125717   -0.965454    1.459066
H      1.710696   -1.949467    0.547062
H      0.827668   -2.145772   -0.978229
H      1.371193    0.129078   -1.658107
H      0.230682    3.483790    0.492392
H      1.467735    3.049855    1.795634
H      1.897325    4.124369    0.419035
H      1.764873    1.018839    2.198439
H      0.078297   -0.785760    2.870487
H      2.878855   -2.038389   -1.326738
H      3.689775   -1.629983    0.895136
H      3.762123    0.015436    1.496494
H      5.792564    0.442018    0.197576
H      5.868939   -0.916436    1.319959
H      5.941419   -1.068577   -1.683315
H      6.850865   -1.972665   -0.472439
H      5.176481   -2.450989   -0.708491
H      3.937685    1.835852   -0.615717
H      2.849849    1.419373   -1.948005
H      4.491040    0.794094   -2.032171
H     -0.706666   -3.037642    1.567790
H     -2.979375   -2.136054   -1.160007
H     -1.863716   -2.816397   -2.351925
H     -1.891551   -0.208257   -2.196270
H     -0.403951   -1.167050   -2.292066
H     -1.022784   -5.008666   -1.004619
H     -1.425195   -4.709275    0.695379
H     -2.702830   -4.483204   -0.569733
H     -2.636635   -2.007888    2.410643
H     -3.178566   -2.876541    0.966768
