57

C     -1.841638    2.102709    1.073417
C     -0.644548    1.385944    1.278716
C     -0.305076    0.343077    0.313231
C     -0.236420    0.922084   -1.096762
C     -0.030651    0.077128   -2.157854
C      0.042352    0.538978   -3.483175
C     -0.098810    1.889569   -3.700966
C     -0.303538    2.749083   -2.644966
C     -0.370817    2.246406   -1.325996
C     -1.505435   -0.585667    0.278004
O     -1.413668   -1.683528   -0.577839
C     -2.394880   -1.994046   -1.523584
O     -3.393695   -1.228008   -1.578834
C     -2.301865   -3.155265   -2.432103
C     -1.849964   -1.126318    1.650369
C     -3.074673   -2.047235    1.527991
C      0.889099   -0.484652    0.535827
C      2.249550   -0.032250    0.557000
N      3.111285   -1.221644    0.820629
C      3.051612   -2.211002   -0.181862
C      4.427419   -0.818332    1.193315
C      2.812108    0.645837   -0.658497
C      0.099127    1.668640    2.380595
C     -0.351074    2.658570    3.263381
C     -1.524694    3.361597    3.061497
C     -2.273412    3.069595    1.945010
H     -2.487074    1.926643    0.218422
H      0.125417   -0.987606   -2.078552
H      0.202912   -0.128445   -4.315262
H     -0.048729    2.281908   -4.705744
H     -0.419714    3.811033   -2.762426
H     -0.494796    2.928337   -0.510965
H     -2.455265   -0.048839   -0.030100
H     -3.302351   -3.626003   -2.496361
H     -1.941465   -2.848207   -3.439811
H     -1.622111   -3.942228   -2.018665
H     -2.156514   -0.325501    2.349522
H     -1.094666   -1.736118    2.124226
H     -3.327543   -2.348547    2.566489
H     -3.935708   -1.483135    1.137810
H     -2.844118   -2.960171    0.978055
H      0.665539   -1.050002    1.510816
H      0.776664   -1.365575   -0.187389
H      2.537888    0.609091    1.388081
H      2.783228   -3.231130    0.201916
H      2.460591   -2.024484   -1.073761
H      4.112522   -2.360457   -0.552522
H      4.906951   -1.712986    1.689869
H      4.460821    0.047583    1.860932
H      5.031138   -0.672127    0.253813
H      2.392503    1.588131   -0.949639
H      3.922339    0.844676   -0.531825
H      2.776077   -0.066279   -1.505563
H      1.006668    1.197589    2.692427
H      0.253516    2.868586    4.129094
H     -1.858485    4.123433    3.755513
H     -3.193934    3.619557    1.785056
