66

C      0.645543   -0.586934   -0.864439
O      1.405135   -1.382862   -1.685654
C      0.597868   -2.030938   -0.683195
C      1.219541    0.345972    0.144510
C      0.673181    1.681934   -0.264834
C     -0.323372    1.508221   -1.095458
C     -0.601270    0.094287   -1.374076
O     -1.705023   -0.423904   -0.679771
C     -2.834971   -0.930187   -1.264751
O     -2.876916   -0.919013   -2.519495
C     -3.998933   -1.482253   -0.532771
C     -4.748208   -0.445343    0.233814
O     -5.842054   -1.047299    0.881224
C     -6.895879   -1.688046    0.277298
O     -6.931942   -1.765510   -0.970774
C     -8.010764   -2.296576    1.100308
C     -5.180010    0.731871   -0.621063
C     -3.845214    0.066312    1.372523
C      1.335121    2.880966    0.302827
C      2.535163    2.808903    0.841437
O      3.168664    1.571086    0.862344
C      2.705855    0.442577    0.119733
O      3.297749   -0.702687    0.705836
C      4.156559   -1.504347   -0.006837
O      4.429740   -1.225704   -1.192984
C      4.760842   -2.697055    0.616886
C      5.630991   -3.429812   -0.404383
C      4.798868   -3.868276   -1.580641
C      6.284198   -4.635015    0.230410
C      0.625167    4.182217    0.253361
O      1.398376    5.213834    0.830927
C      0.968037    6.525753    0.894103
O     -0.159225    6.799314    0.414189
C      1.821638    7.588285    1.516644
H     -0.294278   -2.571414   -1.073525
H      1.171725   -2.588912    0.063132
H      0.840452    0.133429    1.175597
H     -0.864736    2.367522   -1.511541
H     -0.694204    0.006383   -2.473100
H     -4.686582   -1.997794   -1.221787
H     -3.701761   -2.274705    0.212705
H     -8.728175   -1.494439    1.361720
H     -8.460031   -3.081246    0.465160
H     -7.552701   -2.773965    1.969521
H     -4.835224    0.594028   -1.655887
H     -4.680725    1.638594   -0.223739
H     -6.269540    0.921266   -0.534551
H     -3.700533    1.146921    1.239139
H     -2.880072   -0.467604    1.330933
H     -4.281778   -0.171291    2.360088
H      3.005665    3.700976    1.254201
H      3.040637    0.531879   -0.943422
H      5.431801   -2.424417    1.462297
H      3.988868   -3.375455    1.033208
H      6.422947   -2.755378   -0.762116
H      4.972098   -3.285095   -2.486916
H      3.721886   -3.764902   -1.306817
H      4.995360   -4.928313   -1.794703
H      7.074075   -4.277111    0.949755
H      6.777811   -5.265834   -0.522187
H      5.553004   -5.228042    0.847707
H     -0.354518    4.137414    0.779387
H      0.438551    4.488991   -0.803658
H      2.895879    7.359171    1.453080
H      1.657649    8.522212    0.941633
H      1.491994    7.797360    2.557437
