27

C     -0.272631   -1.564756   -0.955282
N      0.919116   -2.191388   -0.797428
C      1.828619   -1.375235   -0.264890
C      1.170247   -0.179040   -0.081468
N     -0.119313   -0.328476   -0.515681
C     -1.047436    0.773655   -0.448541
O     -1.755988    0.883708    0.709139
C     -2.537794   -0.234606    0.910020
C     -3.551724   -0.383501   -0.186293
O     -4.395583    0.722980   -0.247829
N      1.867043    0.839043    0.451561
C      3.167902    0.718259    0.803137
N      3.787424   -0.460812    0.613521
C      3.157044   -1.533616    0.082983
O      3.704030   -2.629695   -0.101953
N      3.852547    1.838224    1.364950
H     -1.182449   -1.984008   -1.362547
H     -0.474582    1.745298   -0.590364
H     -1.674170    0.726922   -1.375467
H     -3.028747   -0.194139    1.914518
H     -1.841456   -1.122742    0.875613
H     -3.111404   -0.641598   -1.160692
H     -4.224508   -1.234197    0.127459
H     -3.834386    1.526055   -0.370218
H      1.382072    1.735223    0.591457
H      4.884532    1.956101    1.294230
H      3.331596    2.592341    1.876062
