51

C      6.318167   -2.035971    1.123872
C      7.694128   -2.147215    1.212662
C      8.470812   -1.197419    0.585779
C      7.932992   -0.152105   -0.119018
C      6.537128   -0.083200   -0.179805
C      5.738457   -1.000962    0.425683
O      4.366193   -0.917828    0.356834
C      3.766457    0.134600   -0.354567
C      2.271558   -0.014089   -0.256882
O      1.735664   -1.068011    0.450190
C      0.296958   -1.180677    0.535594
C     -0.295170   -0.017431    1.234988
N     -1.646843    0.105662    1.456213
C     -2.661762    0.360226    0.550630
C     -2.845255   -0.715335   -0.474394
C     -4.085725   -0.509527   -1.338042
C     -3.880876    0.800994   -2.080489
C     -3.764721    1.872340   -1.047812
C     -2.526613    1.668911   -0.209131
C     -5.008731    1.982163   -0.189376
C     -5.145405    0.667160    0.529929
C     -3.968474    0.396371    1.384477
C     -5.338293   -0.410106   -0.539418
O      1.609978    0.870398   -0.850898
Cl    10.215499   -1.299335    0.674025
H      5.739207   -2.799687    1.628088
H      8.128576   -2.981682    1.774786
H      8.517587    0.606476   -0.620476
H      6.121064    0.741526   -0.735115
H      4.081642    1.087272    0.114945
H      4.077916    0.161252   -1.428581
H      0.152720   -2.145777    1.090156
H      0.001446   -1.319659   -0.513943
H      0.110673    0.964934    0.854854
H      0.202733   -0.039731    2.279249
H     -1.959304   -0.032892    2.460831
H     -1.995878   -0.763982   -1.197576
H     -2.985711   -1.675473    0.054138
H     -4.107157   -1.316305   -2.080974
H     -4.712509    0.962389   -2.768115
H     -2.895765    0.731138   -2.600338
H     -3.601320    2.842184   -1.602249
H     -1.673785    1.564480   -0.888845
H     -2.467665    2.538723    0.476829
H     -5.860768    2.095896   -0.866417
H     -4.870233    2.806615    0.514385
H     -6.055102    0.717133    1.150132
H     -3.890945    1.172177    2.153637
H     -4.048241   -0.627107    1.809484
H     -5.656278   -1.367204   -0.084285
H     -6.139028   -0.032307   -1.208487
