35

C     -2.028793    0.723575    1.198650
C     -2.821647    1.784869    0.812997
C     -3.472240    1.851073   -0.397100
C     -3.318245    0.797160   -1.263716
C     -2.527778   -0.276582   -0.896592
C     -1.871875   -0.352763    0.312892
C     -1.060973   -1.502331    0.636225
C      0.326656   -1.612860    0.143293
O      1.254601   -0.654127    0.464653
C      1.313461    0.664616    0.118577
C      2.399810    1.579411    0.589852
C      3.713112    1.008437    0.129211
N      2.182072    2.908636    0.052852
O      0.408418    1.115439   -0.629181
C      0.325797   -1.933906   -1.362562
C      0.877573   -2.926325    0.765349
Cl    -4.472950    3.219062   -0.852218
H     -1.541840    0.728349    2.164699
H     -2.953894    2.622858    1.482726
H     -3.830795    0.849103   -2.217281
H     -2.444205   -1.076172   -1.619682
H     -1.594259   -2.436470    0.242551
H     -1.116389   -1.699272    1.764856
H      2.363755    1.587112    1.693798
H      4.118786    0.250713    0.836839
H      4.458021    1.855524    0.166395
H      3.689738    0.640212   -0.914069
H      2.467518    2.904239   -0.950330
H      1.162111    3.098541    0.079813
H     -0.311745   -2.826079   -1.482364
H      1.373135   -2.214710   -1.594915
H     -0.068209   -1.109895   -1.955542
H      0.417395   -3.791808    0.270241
H      0.620141   -2.866500    1.839549
H      1.963737   -2.909128    0.668418
