41

C     -2.045224    2.660746   -1.734485
N     -2.196076    1.356231   -1.117373
C     -3.492141    1.166307   -0.569692
O     -4.330171    2.108643   -0.661932
C     -3.953873   -0.044000    0.104041
C     -3.143679   -1.002620    0.718596
C     -3.737835   -2.087730    1.298722
C     -5.126744   -2.201418    1.259177
C     -5.909367   -1.245183    0.648688
C     -5.318019   -0.150357    0.062073
Cl    -6.243242    1.112030   -0.735719
N     -1.728787   -0.987867    0.823880
C     -1.107886   -1.655653    1.793653
N      0.195276   -1.443406    1.610252
C      0.411960   -0.637566    0.520811
C     -0.832505   -0.345700    0.016951
C     -1.052233    0.508407   -1.165364
C      1.724344   -0.218295    0.046761
N      2.049717    0.555007   -0.990725
O      3.359777    0.677831   -1.057493
C      3.916885    0.004303   -0.088406
N      2.905515   -0.557563    0.605047
C      5.389292   -0.097532    0.166243
C      5.973626    1.281685    0.350999
C      6.057635   -0.744004   -1.035489
H     -2.873910    2.859026   -2.474697
H     -2.228416    3.410267   -0.912454
H     -1.056776    2.803445   -2.194879
H     -3.127911   -2.837637    1.767070
H     -5.536707   -3.082822    1.736300
H     -6.982474   -1.343312    0.624207
H     -1.483168   -2.262263    2.604106
H     -0.164171    1.204548   -1.235247
H     -1.017924   -0.080188   -2.120563
H      5.591902   -0.724247    1.043295
H      6.893821    1.189707    0.947807
H      6.199762    1.705737   -0.639914
H      5.250351    1.940180    0.873775
H      5.972858   -0.133331   -1.939657
H      5.656831   -1.759083   -1.210885
H      7.139685   -0.902325   -0.755727
