57

C      0.542413    0.277938   -0.268175
C      1.990200   -0.011564   -0.319795
C      2.513455    0.241882    1.099088
C      1.639801   -0.283293    2.165314
C      0.569754   -1.222551    1.748624
C     -0.152022   -0.827144    0.503603
C     -1.564592   -0.352962    0.750103
C     -2.246912   -0.309158   -0.627450
C     -1.634822    0.749925   -1.451785
C     -0.151542    0.448187   -1.531053
O      0.288736    0.383345   -2.657928
C     -3.663708   -0.181804   -0.229911
C     -3.770066   -1.290855    0.832400
C     -2.404085   -1.372506    1.455749
C     -4.116049    1.091399    0.303552
O     -4.404717    1.156779    1.517833
C     -4.279029    2.359390   -0.430252
O     -4.162745    2.273742   -1.790650
C     -2.045905   -1.634547   -1.342645
C      3.958357   -0.176098    1.219542
C      4.752951    0.752103    0.334669
O      4.895296    1.969424    1.013466
C      4.227858    0.906126   -1.028904
C      2.763214    0.931869   -1.212909
C      2.313311   -1.413356   -0.783808
H      0.395056    1.208557    0.339630
H      2.519316    1.370244    1.185952
H      1.171727    0.535604    2.787492
H      2.293254   -0.829568    2.908048
H      0.930918   -2.293142    1.717888
H     -0.201769   -1.238320    2.575933
H     -0.247820   -1.755501   -0.127264
H     -1.575680    0.643262    1.184406
H     -2.081786    0.728007   -2.447468
H     -1.667439    1.739323   -0.938009
H     -4.349450   -0.465657   -1.073084
H     -4.564827   -1.050424    1.562064
H     -3.965644   -2.232695    0.300749
H     -2.508132   -1.057102    2.516476
H     -1.968600   -2.385142    1.415403
H     -3.512013    3.067854    0.001428
H     -5.254743    2.831556   -0.112310
H     -4.856302    1.695899   -2.149661
H     -2.086895   -2.488082   -0.665925
H     -2.919800   -1.736872   -2.040513
H     -1.137956   -1.584928   -1.968693
H      4.263558    0.039639    2.264412
H      4.142489   -1.230307    1.035636
H      5.791223    0.318509    0.293446
H      4.143910    2.572619    0.897109
H      4.636086    1.874928   -1.447870
H      4.714344    0.121734   -1.682187
H      2.320756    1.958739   -1.195766
H      2.578382    0.566062   -2.268018
H      1.415104   -1.859318   -1.304039
H      3.118030   -1.437305   -1.551180
H      2.605554   -2.094444    0.012211
