20

C      1.426237   -1.000080    0.214157
N      0.149508   -0.450046   -0.175178
C     -0.694616    0.289040    0.690225
C     -1.845383    0.738408   -0.124220
C     -3.104314    0.344871    0.587642
O     -1.678512    0.123887   -1.371304
C     -0.466937   -0.547040   -1.447397
O     -0.064198   -1.112022   -2.495348
O     -0.551569    0.550298    1.924383
C      2.547820   -0.057558   -0.020029
C      3.313206    0.362896    0.963759
H      1.391702   -1.241512    1.303459
H      1.574271   -1.921925   -0.400562
H     -1.806145    1.850873   -0.216509
H     -3.353162   -0.709113    0.367617
H     -2.884354    0.393303    1.685386
H     -3.949005    1.026887    0.394975
H      2.717350    0.275576   -1.034402
H      4.127237    1.047788    0.789560
H      3.150864    0.035470    1.978351
