45

C     -1.603248   -0.033905   -2.373872
O     -1.147127   -1.181573   -1.738482
C     -0.950797   -0.973386   -0.339605
N     -2.161526   -0.633158    0.334969
C     -3.387448   -1.272354    0.127998
O     -3.334161   -2.210363   -0.780265
C     -4.672570   -1.048476    0.753303
C     -5.005506    0.407729    0.898312
S     -4.656487    1.392468    2.279804
C     -5.310801    2.853382    1.742613
C     -5.786678    2.547617    0.499432
C     -5.628819    1.285154    0.070628
C      0.265317   -0.205696   -0.128503
S      0.654924    0.613342    1.420557
C      2.443208    0.463614    1.605327
C      3.062079   -0.556453    0.684390
C      2.404958   -1.447585   -0.009613
N      0.959863   -1.510905    0.033213
C     -0.256013   -2.185327    0.158975
O     -0.610600   -3.340332    0.536404
C      3.004478   -2.555294   -0.763457
O      4.356642   -2.840513   -0.853457
O      2.284969   -3.380635   -1.427655
C      4.552476   -0.395568    0.487780
O      4.666396    0.981545    0.056644
C      5.818534    1.589308   -0.304654
N      5.778235    2.965858   -0.708569
O      6.903453    0.938393   -0.284898
H     -2.596378    0.287867   -1.953627
H     -1.688383   -0.280137   -3.460875
H     -0.876188    0.816484   -2.266143
H     -2.159958    0.173823    1.036239
H     -4.810976   -1.533939    1.726097
H     -5.511398   -1.446380    0.115156
H     -5.355314    3.845002    2.248418
H     -6.279807    3.341658   -0.100277
H     -5.985345    0.931812   -0.924389
H      0.631442    0.375368   -1.035382
H      2.995096    1.419742    1.421631
H      2.692992    0.172023    2.677432
H      4.668431   -3.779492   -0.562478
H      5.101940   -0.448649    1.441266
H      5.005391   -1.047053   -0.220436
H      6.674389    3.524527   -0.702119
H      4.850318    3.380457   -1.010521
