45

C     -0.220308    0.192623   -0.198788
C     -0.832152    1.491111   -0.422681
C     -1.872042    1.680237   -1.279513
C     -2.417231    2.948777   -1.523366
C     -1.914812    4.066285   -0.893865
C     -0.856488    3.892708   -0.017135
C     -0.326525    2.648551    0.217261
C      1.121603    0.350482    0.570484
C      2.004536   -0.817571    0.167665
N      2.597354   -0.423271   -1.091442
C      3.607364   -1.289500   -1.553441
C      1.540120   -0.155406   -2.001222
C      0.159713   -0.429896   -1.550968
C      0.879963    0.236753    2.040487
C      2.123638    0.393695    2.829949
O     -0.919053   -0.696251    0.564026
C     -2.047680   -1.357880    0.458604
C     -2.658162   -2.330057    1.419098
C     -3.012190   -3.558188    0.599612
O     -2.748000   -1.189901   -0.589568
H     -2.338741    0.904079   -1.849257
H     -3.250735    3.063216   -2.225574
H     -2.292032    5.062214   -1.069959
H     -0.403049    4.738065    0.508793
H      0.499798    2.589296    0.906195
H      1.664871    1.242846    0.232155
H      2.784659   -0.928111    0.948298
H      1.459057   -1.770293    0.109217
H      4.605527   -0.867708   -1.252848
H      3.624123   -1.291529   -2.679556
H      3.590631   -2.327897   -1.123944
H      1.622891    0.901047   -2.344599
H      1.706527   -0.761754   -2.928512
H     -0.027852   -1.515333   -1.524822
H     -0.548031   -0.058545   -2.342344
H      0.524907   -0.825079    2.218719
H      0.028187    0.878230    2.385301
H      2.733293    1.221436    2.391964
H      2.720240   -0.521913    2.920173
H      1.868664    0.703018    3.879206
H     -1.979154   -2.559349    2.256535
H     -3.590101   -1.866709    1.765876
H     -4.080109   -3.602762    0.324665
H     -2.709138   -4.517196    1.106137
H     -2.424080   -3.542569   -0.357013
