68

C      0.058225    0.623655    0.175774
C     -0.437527    0.166453   -1.145428
C     -1.940081   -0.026802   -0.775784
O     -2.447825    1.243345   -0.435082
C     -3.134481    1.160995    0.743417
O     -2.798012   -0.058465    1.338525
C     -1.867362   -0.690347    0.515640
C     -0.499447   -0.338299    1.137388
C     -2.741294    2.247222    1.761321
C     -3.592479    2.010397    3.011191
C     -4.631189    1.187760    0.671716
C     -5.264174    0.069910   -0.070232
C     -2.669313   -0.583871   -1.895948
O     -3.303319    0.265943   -2.572387
C     -2.810757   -1.948869   -2.381725
O     -3.688702   -2.026223   -3.493392
C      0.188333   -1.148612   -1.486404
C      1.627520   -1.335364   -1.174368
O      1.752537   -2.570078   -0.482830
C      2.344402   -0.214737   -0.537256
F      2.982404    0.482050   -1.600385
C      1.543549    0.792494    0.186692
C      1.915546    0.993742    1.655905
C      3.356163    1.302210    1.827194
C      4.167604    0.580282    0.795551
C      5.308751    1.104005    0.466513
C      6.142306    0.464367   -0.520257
O      7.264633    0.969528   -0.851014
C      5.663141   -0.770130   -1.123083
C      4.499167   -1.279873   -0.768650
C      3.590552   -0.679593    0.238524
C      3.356020   -1.668301    1.296396
C     -0.318657    1.199025   -2.222164
H     -0.376947    1.632237    0.343104
H     -2.000945   -1.772857    0.546527
H     -0.599163    0.098355    2.142378
H      0.077345   -1.273323    1.264225
H     -2.979063    3.245249    1.380393
H     -1.688223    2.216891    2.051415
H     -3.778273    0.941057    3.204788
H     -4.533354    2.567567    3.004120
H     -3.015523    2.383044    3.912824
H     -4.899134    2.185062    0.232934
H     -5.059491    1.163795    1.711573
H     -4.737017   -0.885176   -0.051595
H     -5.490130    0.365195   -1.096903
H     -6.294360   -0.163998    0.389329
H     -3.376019   -2.534479   -1.586896
H     -1.939262   -2.541269   -2.597013
H     -3.351202   -1.377605   -4.150680
H     -0.015863   -1.285655   -2.571426
H     -0.429675   -1.908456   -0.965196
H      2.135429   -1.608412   -2.154283
H      1.504652   -3.306107   -1.067336
H      1.708558    1.831684   -0.245400
H      1.498610    0.224844    2.320401
H      1.343553    1.925470    1.961591
H      3.517167    2.385233    1.645888
H      3.684524    1.039322    2.852113
H      5.648416    2.040851    0.938845
H      6.289138   -1.268568   -1.878240
H      4.210368   -2.197162   -1.259449
H      2.357561   -1.879337    1.640653
H      3.938075   -1.346598    2.212163
H      3.815233   -2.675220    1.059292
H     -1.196477    1.208330   -2.890235
H      0.623503    1.018640   -2.793247
H     -0.208248    2.226666   -1.792015
