69

C     -0.142933    0.680064    0.723546
C      0.237684   -0.668115    1.180570
C     -1.205831   -1.237209    1.278535
O     -1.820342   -1.277486    0.029430
C     -3.046910   -0.677963    0.117147
O     -3.017441    0.233426    1.176491
C     -1.900780   -0.095319    1.959285
C     -0.949293    1.127548    1.886431
C     -3.497141    0.044486   -1.080470
C     -4.648367    0.792979   -1.004770
C     -5.108798    1.497262   -2.112849
C     -4.438048    1.467500   -3.304416
C     -3.282881    0.724054   -3.407729
C     -2.843314    0.027825   -2.279952
C     -4.156283   -1.662687    0.454281
C     -1.221399   -2.506469    1.980245
O     -1.031204   -2.521676    3.210521
C     -1.437596   -3.820191    1.372439
O     -1.507985   -4.860345    2.334904
C      1.120864   -1.311582    0.213292
C      1.275115   -0.590403   -1.087499
O      2.203478   -1.212018   -1.928024
C      1.533542    0.888291   -1.004207
F      0.981864    1.349424   -2.189680
C      0.865562    1.581345    0.135814
C      1.740201    2.353095    1.039633
C      3.102295    1.953505    1.323013
C      3.696451    1.228233    0.150831
C      4.838387    0.584158    0.386249
C      5.502623   -0.141823   -0.657712
O      6.563596   -0.751961   -0.473000
C      4.814898   -0.098007   -1.955404
C      3.702068    0.535965   -2.144201
C      3.005793    1.266654   -1.116025
C      3.016108    2.759696   -1.544031
C      0.724342   -0.766547    2.601420
H     -0.923387    0.548898   -0.100848
H     -2.206595   -0.291888    2.978827
H     -0.441434    1.310938    2.821786
H     -1.562630    1.999420    1.537138
H     -5.254831    0.881695   -0.112739
H     -6.027199    2.093969   -2.050476
H     -4.790271    2.017329   -4.186394
H     -2.744173    0.687665   -4.331313
H     -1.942801   -0.545139   -2.377260
H     -3.889100   -2.391188    1.233012
H     -4.539185   -2.208417   -0.428795
H     -5.040363   -1.057852    0.819455
H     -2.304244   -3.936234    0.716439
H     -0.492489   -4.095494    0.800434
H     -2.402495   -5.224504    2.424861
H      0.832742   -2.350125   -0.047301
H      2.135125   -1.439638    0.709136
H      0.301218   -0.810258   -1.628530
H      1.874040   -2.011967   -2.357439
H      0.194894    2.414675   -0.302296
H      1.114723    2.509101    1.997570
H      1.804269    3.452696    0.714570
H      3.288325    1.290042    2.198361
H      3.745176    2.850308    1.532032
H      5.244735    0.633596    1.417153
H      5.303956   -0.643974   -2.790224
H      3.324737    0.472086   -3.193217
H      3.454923    2.873508   -2.559247
H      2.009082    3.175336   -1.613806
H      3.603665    3.383967   -0.874843
H     -0.014781   -0.547998    3.378663
H      1.593957   -0.130513    2.838357
H      1.082085   -1.805750    2.754986
