71

C     -1.725603    0.133054   -0.399294
C     -0.282339    0.402047   -0.906559
C      0.311568   -0.909139   -0.505830
C      1.773538   -1.023960   -0.860875
C      2.481504    0.129687   -0.180715
C      3.957700    0.052824   -0.490991
C      4.415655   -1.202508    0.128329
C      5.415026   -1.236576    0.962658
C      6.165742   -0.069438    1.365625
O      7.120868   -0.091785    2.159836
C      5.734197    1.191211    0.773212
C      4.720735    1.204166   -0.069699
C      3.723463   -2.495894   -0.164632
C      2.239983   -2.328775   -0.265383
C      4.214105   -0.122798   -1.982805
F      2.383160   -0.139712    1.187591
C      1.865226    1.464075   -0.391283
C      0.389053    1.496426   -0.199307
O      2.307913    2.121733   -1.528398
C     -0.582595   -1.874651   -1.183781
C     -1.956777   -1.204210   -1.001646
O     -2.676118   -1.875633   -0.023670
C     -2.479021   -1.205091    1.156336
O     -1.736870   -0.074257    0.949609
C     -3.787607   -0.957203    1.893631
C     -4.132856   -2.251032    2.562600
C     -2.992210   -3.203627    2.281871
C     -1.837009   -2.203479    2.120049
C     -0.392929    0.572343   -2.395155
C     -2.603048    1.226037   -0.851161
C     -3.269279    2.109509    0.125092
O     -4.033599    3.131817   -0.541901
C     -4.721346    4.045003    0.221460
C     -5.516561    5.108546   -0.454410
O     -4.654559    3.949799    1.474522
O     -2.822465    1.463627   -2.034721
H      0.233776   -1.009763    0.586963
H      1.852894   -1.023448   -1.943608
H      5.754039   -2.184969    1.421445
H      6.263195    2.125809    1.038064
H      4.503932    2.230093   -0.437971
H      3.919749   -3.168552    0.688593
H      4.116065   -2.984761   -1.072017
H      1.798186   -2.386367    0.764898
H      1.840783   -3.192557   -0.828753
H      3.936072    0.796445   -2.534739
H      5.341020   -0.175577   -2.070645
H      3.838136   -1.054540   -2.390929
H      2.255845    2.117092    0.458790
H      0.008196    2.475432   -0.612665
H      0.147516    1.437562    0.882281
H      1.683863    2.200172   -2.257493
H     -0.611608   -2.852173   -0.671105
H     -0.377107   -2.004615   -2.266655
H     -2.550411   -1.227276   -1.917229
H     -4.572961   -0.650476    1.150038
H     -3.637799   -0.172887    2.656039
H     -4.163254   -2.137587    3.684882
H     -5.091764   -2.642933    2.195147
H     -3.204471   -3.688936    1.305975
H     -2.801653   -3.913394    3.092631
H     -0.957850   -2.712329    1.692313
H     -1.644968   -1.763757    3.104497
H     -1.220053   -0.006675   -2.853406
H      0.522861    0.212185   -2.928916
H     -0.598129    1.638159   -2.609641
H     -3.916102    1.627422    0.853892
H     -2.525639    2.699970    0.731574
H     -5.850751    4.694146   -1.428785
H     -4.919306    6.023734   -0.605343
H     -6.388942    5.343219    0.191674
