36

N      1.165643    1.035300   -1.493905
C      1.566685    0.763083   -0.065933
C      2.997386    1.053185    0.085540
C      4.018621    0.342908   -0.678002
C      5.004230   -0.226335    0.019853
C      1.045412   -0.549438    0.319139
C      1.760179   -1.729367    0.301914
C      1.218741   -2.973545    0.601395
C     -0.106363   -3.087228    0.941523
C     -0.843849   -1.949933    0.970705
C     -0.293007   -0.706299    0.670323
C     -1.184664    0.444281    0.808459
N     -1.033192    1.525722    1.594732
O     -2.034530    2.318120    1.498178
C     -2.930035    1.854170    0.656824
C     -2.412328    0.643680    0.191545
C     -3.094276   -0.132992   -0.719732
C     -4.321989    0.295482   -1.187695
C     -4.844797    1.493938   -0.730967
C     -4.157045    2.266970    0.182436
H      0.154816    0.743546   -1.584509
H      1.775403    0.474750   -2.133102
H      1.009899    1.552426    0.490299
H      3.108263    2.147275   -0.263235
H      3.232171    1.107675    1.189431
H      4.024676    0.249620   -1.743103
H      5.047323   -0.164279    1.061331
H      5.801277   -0.785640   -0.512429
H      2.788315   -1.719387    0.030660
H      1.819531   -3.890101    0.576402
H     -0.565390   -4.042957    1.181006
H     -1.906724   -1.969113    1.239569
H     -2.632996   -1.075320   -1.049770
H     -4.836567   -0.347086   -1.914552
H     -5.796895    1.827261   -1.096725
H     -4.543925    3.209625    0.562394
