64

C     -1.106489   -0.622557   -0.302071
C     -0.376062   -1.190143   -1.469231
C      1.085257   -1.418473   -1.214722
C      1.963511   -0.276408   -1.362988
C      3.127447   -0.239787   -0.642702
C      3.519554   -1.194731    0.223029
C      4.737827   -0.778265    0.733490
N      5.039938    0.419575    0.155894
C      4.057955    0.776424   -0.701386
C      3.784189    1.820615   -1.546293
C      2.606175    1.822200   -2.299147
C      1.696820    0.785459   -2.214556
C      6.212102    1.249310    0.371483
C      7.332873    0.523201    1.050162
C      5.762836    2.404164    1.253600
C      2.680804   -2.386830    0.473171
C      1.249712   -2.177469    0.079388
N      0.435335   -1.746848    1.152257
C     -0.939493   -1.576076    0.858529
C      0.999575   -0.979099    2.187089
C     -2.527070   -0.418274   -0.671334
N     -3.468946    0.113257    0.261617
C     -4.840339    0.327469   -0.044099
C     -5.272481    1.767561    0.042308
C     -6.783459    1.777370    0.162224
C     -7.406208    0.628713   -0.612684
C     -7.045134   -0.709474   -0.003737
C     -5.783253   -0.483938    0.829814
O     -2.898367   -0.727790   -1.847254
H     -0.648084    0.354497   -0.042057
H     -0.604088   -0.648941   -2.375372
H     -0.807513   -2.226683   -1.638737
H      1.403077   -2.146354   -2.029122
H      5.378688   -1.263351    1.454929
H      4.506046    2.625262   -1.602170
H      2.404603    2.641901   -2.953758
H      0.779088    0.725562   -2.764261
H      6.548930    1.625718   -0.601594
H      7.333591   -0.535325    0.677808
H      8.272427    1.051055    0.816083
H      7.160966    0.522881    2.156708
H      5.149812    1.998305    2.073107
H      5.123846    3.123037    0.702459
H      6.659762    2.931132    1.580219
H      3.158587   -3.249920   -0.034741
H      2.722939   -2.604038    1.560081
H      0.877355   -3.228550   -0.157741
H     -1.529701   -1.306032    1.731238
H     -1.337873   -2.570093    0.506429
H      1.159355   -1.664552    3.073693
H      0.286786   -0.204292    2.605892
H      1.989650   -0.539433    1.998188
H     -3.114324    0.349515    1.208362
H     -5.011904    0.007218   -1.107772
H     -4.873848    2.283728    0.932982
H     -5.020248    2.340204   -0.874211
H     -7.214957    2.712864   -0.297123
H     -7.115708    1.780423    1.218401
H     -8.497264    0.749539   -0.580807
H     -7.062934    0.728546   -1.661215
H     -6.710425   -1.353467   -0.869578
H     -7.856851   -1.153425    0.572272
H     -5.307542   -1.458366    1.062053
H     -6.046855    0.112274    1.710372
