45

C     -1.087416   -2.557273   -1.105486
C     -1.858597   -3.641916   -1.483932
C     -3.206115   -3.619463   -1.154892
C     -3.803543   -2.595966   -0.486736
C     -3.025516   -1.494625   -0.101791
C     -1.676637   -1.541347   -0.440465
C     -0.701742   -0.471483   -0.064787
C     -1.124526    0.912678    0.157559
C     -2.221926    1.337169    0.892412
C     -3.198643    0.426899    1.554571
C     -3.847687   -0.450644    0.557725
C     -2.476377    2.686277    1.034971
C     -1.640908    3.604621    0.447367
C     -0.548791    3.167037   -0.286014
C     -0.288381    1.824408   -0.434531
C      0.535698   -0.785389    0.077216
C      1.729245    0.011362    0.443531
C      2.758295   -0.077180   -0.619737
N      3.957999    0.674226   -0.357383
C      5.165319   -0.090141   -0.643541
C      4.033868    1.190006    0.981124
O      3.966052    1.734174   -1.201351
H     -0.023836   -2.557631   -1.390377
H     -1.428935   -4.476140   -2.015951
H     -3.786861   -4.487434   -1.465330
H     -4.847134   -2.565797   -0.225854
H     -2.593745   -0.234105    2.245051
H     -3.893253    0.961363    2.208995
H     -4.298141    0.244376   -0.220983
H     -4.739582   -0.985417    0.975930
H     -3.319512    3.034813    1.599397
H     -1.826956    4.688021    0.550905
H      0.113033    3.888810   -0.746615
H      0.512154    1.418899   -1.025411
H      0.766090   -1.855170   -0.086725
H      1.466740    0.949325    0.872044
H      2.183226   -0.569400    1.363918
H      2.383594    0.139117   -1.614756
H      3.086491   -1.162366   -0.667832
H      5.353587   -0.831576    0.160231
H      6.022747    0.619501   -0.625552
H      5.140361   -0.536059   -1.652839
H      3.285885    2.007161    1.134508
H      5.035081    1.658380    1.096938
H      3.969291    0.407898    1.764480
