58

C     -4.983701    1.950546    1.015676
C     -4.176311    1.476231    0.012361
C     -2.830978    0.877464    0.372829
C     -3.141460   -0.593591    0.471742
C     -3.323969   -1.176018    1.724822
C     -3.641523   -2.505831    1.829522
C     -3.792827   -3.315966    0.724839
C     -3.610696   -2.731745   -0.501738
C     -3.291589   -1.398691   -0.628846
F     -4.110070   -4.640111    0.843773
C     -1.800664    1.253583   -0.597892
C     -0.389443    0.817027   -0.374585
C     -0.221423   -0.646077   -0.339898
N      1.165167   -1.059454   -0.153965
C      1.687900   -0.753827    1.127495
C      3.170853   -1.161321    1.098921
N      3.876253   -0.368716    0.120820
C      5.237530   -0.080118    0.280768
N      5.945411    0.704036   -0.663216
C      7.358621    0.952169   -0.416476
C      8.163883   -0.313641   -0.352366
O      5.848903   -0.525981    1.285119
C      3.155278    0.118843   -1.023449
C      1.997263   -0.832878   -1.276961
C     -4.576008    1.536150   -1.280913
C     -5.813694    2.082598   -1.589710
C     -6.635933    2.562668   -0.594873
C     -6.209583    2.491747    0.709607
F     -7.855317    3.098380   -0.920869
H     -4.669167    1.906793    2.069709
H     -2.565863    1.233639    1.388523
H     -3.203848   -0.537429    2.590878
H     -3.786679   -2.973473    2.798108
H     -3.726927   -3.358872   -1.381881
H     -3.150713   -0.967021   -1.626387
H     -2.136632    0.926605   -1.642503
H     -1.805481    2.383748   -0.705416
H      0.043724    1.341462    0.515214
H      0.247728    1.199918   -1.239075
H     -0.538995   -1.094465   -1.289542
H     -0.754673   -1.040377    0.545652
H      1.219858   -1.384363    1.908977
H      1.633964    0.300569    1.418346
H      3.156152   -2.208623    0.695738
H      3.597820   -1.137528    2.101265
H      5.492807    1.100325   -1.510490
H      7.405606    1.447225    0.596702
H      7.723606    1.682171   -1.135170
H      9.237848   -0.040027   -0.490095
H      7.888607   -1.024549   -1.149385
H      8.093864   -0.758320    0.673086
H      3.756932    0.167520   -1.953709
H      2.733890    1.123437   -0.825950
H      2.482200   -1.814947   -1.553703
H      1.459830   -0.492864   -2.186652
H     -4.011813    1.188992   -2.137477
H     -6.148823    2.136704   -2.630702
H     -6.876693    2.876277    1.466385
